*SPEF "ieee 1481-1999"
*DESIGN "lab2"
*DATE "11:04:49 Sunday May 04, 2025"
*VENDOR "The OpenROAD Project"
*PROGRAM "OpenROAD"
*VERSION "b16bda7e82721d10566ff7e2b68f1ff0be9f9e38"
*DESIGN_FLOW "NAME_SCOPE LOCAL" "PIN_CAP NONE"
*DIVIDER /
*DELIMITER :
*BUS_DELIMITER []
*T_UNIT 1 NS
*C_UNIT 1 PF
*R_UNIT 1 OHM
*L_UNIT 1 HENRY

*NAME_MAP
*1 A[0]
*2 A[1]
*3 A[2]
*4 A[3]
*5 A[4]
*6 A[5]
*7 A[6]
*8 A[7]
*9 B[0]
*10 B[1]
*11 B[2]
*12 B[3]
*13 B[4]
*14 B[5]
*15 B[6]
*16 B[7]
*19 opcode[0]
*20 opcode[1]
*21 opcode[2]
*22 out[0]
*23 out[1]
*24 out[2]
*25 out[3]
*26 out[4]
*27 out[5]
*28 out[6]
*29 out[7]
*30 _000_
*31 _001_
*32 _002_
*33 _003_
*34 _004_
*35 _005_
*36 _006_
*37 _007_
*38 _008_
*39 _009_
*40 _010_
*41 _011_
*42 _012_
*43 _013_
*44 _014_
*45 _015_
*46 _016_
*47 _017_
*48 _018_
*49 _019_
*50 _020_
*51 _021_
*52 _022_
*53 _023_
*54 _024_
*55 _025_
*56 _026_
*57 _027_
*58 _028_
*59 _029_
*60 _030_
*61 _031_
*62 _032_
*63 _033_
*64 _034_
*65 _035_
*66 _036_
*67 _037_
*68 _038_
*69 _039_
*70 _040_
*71 _041_
*72 _042_
*73 _043_
*74 _044_
*75 _045_
*76 _046_
*77 _047_
*78 _048_
*79 _049_
*80 _050_
*81 _051_
*82 _052_
*83 _053_
*84 _054_
*85 _055_
*86 _056_
*87 _057_
*88 _058_
*89 _059_
*90 _060_
*91 _061_
*92 _062_
*93 _063_
*94 _064_
*95 _065_
*96 _066_
*97 _067_
*98 _068_
*99 _069_
*100 _070_
*101 _071_
*102 _072_
*103 _073_
*104 _074_
*105 _075_
*106 _076_
*107 _077_
*108 _078_
*109 _079_
*110 _080_
*111 _081_
*112 _082_
*113 _083_
*114 _084_
*115 _085_
*116 _086_
*117 _087_
*118 _088_
*119 _089_
*120 _090_
*121 _091_
*122 _092_
*123 _093_
*124 _094_
*125 _095_
*126 _096_
*127 _097_
*128 _098_
*129 _099_
*130 _100_
*131 _101_
*132 _102_
*133 _103_
*134 _104_
*135 _105_
*136 _106_
*137 _107_
*138 _108_
*139 _109_
*140 _110_
*141 _111_
*142 _112_
*143 _113_
*144 _114_
*145 _115_
*146 _116_
*147 _117_
*148 _118_
*149 _119_
*150 _120_
*151 _121_
*152 _122_
*153 _123_
*154 _124_
*155 _125_
*156 _126_
*157 _127_
*158 _128_
*159 _129_
*160 _130_
*161 _131_
*162 _132_
*163 _133_
*164 _134_
*165 _135_
*166 _136_
*167 _137_
*168 _138_
*169 _139_
*170 _140_
*171 _141_
*172 _142_
*173 _143_
*174 _144_
*175 _145_
*176 _146_
*177 _147_
*178 _148_
*179 _149_
*180 _150_
*181 _151_
*182 _152_
*183 _153_
*184 _154_
*185 _155_
*186 _156_
*187 _157_
*188 _158_
*189 _159_
*190 _160_
*191 net1
*192 net10
*193 net11
*194 net12
*195 net13
*196 net14
*197 net15
*198 net16
*199 net17
*200 net18
*201 net19
*202 net2
*203 net20
*204 net21
*205 net22
*206 net23
*207 net24
*208 net25
*209 net26
*210 net27
*211 net3
*212 net4
*213 net5
*214 net6
*215 net7
*216 net8
*217 net9
*218 FILLER_0_0_13
*219 FILLER_0_0_25
*220 FILLER_0_0_29
*221 FILLER_0_0_41
*222 FILLER_0_0_53
*223 FILLER_0_0_57
*224 FILLER_0_0_69
*225 FILLER_0_0_81
*226 FILLER_0_0_85
*227 FILLER_0_0_97
*228 FILLER_0_10_21
*229 FILLER_0_10_27
*230 FILLER_0_10_29
*231 FILLER_0_10_3
*232 FILLER_0_10_51
*233 FILLER_0_10_59
*234 FILLER_0_10_7
*235 FILLER_0_10_76
*236 FILLER_0_10_85
*237 FILLER_0_10_97
*238 FILLER_0_11_13
*239 FILLER_0_11_25
*240 FILLER_0_11_33
*241 FILLER_0_11_46
*242 FILLER_0_11_52
*243 FILLER_0_11_57
*244 FILLER_0_11_82
*245 FILLER_0_11_97
*246 FILLER_0_12_26
*247 FILLER_0_12_29
*248 FILLER_0_12_41
*249 FILLER_0_12_45
*250 FILLER_0_12_78
*251 FILLER_0_12_85
*252 FILLER_0_13_102
*253 FILLER_0_13_25
*254 FILLER_0_13_34
*255 FILLER_0_13_46
*256 FILLER_0_13_54
*257 FILLER_0_13_64
*258 FILLER_0_13_76
*259 FILLER_0_13_80
*260 FILLER_0_13_98
*261 FILLER_0_14_11
*262 FILLER_0_14_23
*263 FILLER_0_14_27
*264 FILLER_0_14_29
*265 FILLER_0_14_37
*266 FILLER_0_14_43
*267 FILLER_0_14_50
*268 FILLER_0_14_62
*269 FILLER_0_14_7
*270 FILLER_0_14_74
*271 FILLER_0_14_82
*272 FILLER_0_14_91
*273 FILLER_0_15_21
*274 FILLER_0_15_33
*275 FILLER_0_15_39
*276 FILLER_0_15_55
*277 FILLER_0_15_57
*278 FILLER_0_15_69
*279 FILLER_0_15_78
*280 FILLER_0_15_9
*281 FILLER_0_15_90
*282 FILLER_0_15_98
*283 FILLER_0_16_100
*284 FILLER_0_16_17
*285 FILLER_0_16_29
*286 FILLER_0_16_49
*287 FILLER_0_16_55
*288 FILLER_0_16_6
*289 FILLER_0_16_61
*290 FILLER_0_16_70
*291 FILLER_0_16_80
*292 FILLER_0_17_17
*293 FILLER_0_17_3
*294 FILLER_0_17_44
*295 FILLER_0_17_53
*296 FILLER_0_17_57
*297 FILLER_0_17_95
*298 FILLER_0_18_26
*299 FILLER_0_18_3
*300 FILLER_0_18_37
*301 FILLER_0_18_53
*302 FILLER_0_18_81
*303 FILLER_0_18_85
*304 FILLER_0_18_97
*305 FILLER_0_19_25
*306 FILLER_0_19_37
*307 FILLER_0_19_51
*308 FILLER_0_19_55
*309 FILLER_0_19_67
*310 FILLER_0_19_79
*311 FILLER_0_19_91
*312 FILLER_0_1_10
*313 FILLER_0_1_100
*314 FILLER_0_1_18
*315 FILLER_0_1_31
*316 FILLER_0_1_42
*317 FILLER_0_1_49
*318 FILLER_0_1_55
*319 FILLER_0_1_57
*320 FILLER_0_1_71
*321 FILLER_0_1_75
*322 FILLER_0_1_80
*323 FILLER_0_1_92
*324 FILLER_0_20_29
*325 FILLER_0_20_41
*326 FILLER_0_20_53
*327 FILLER_0_20_57
*328 FILLER_0_20_69
*329 FILLER_0_20_81
*330 FILLER_0_20_85
*331 FILLER_0_20_97
*332 FILLER_0_2_17
*333 FILLER_0_2_25
*334 FILLER_0_2_29
*335 FILLER_0_2_38
*336 FILLER_0_2_7
*337 FILLER_0_2_81
*338 FILLER_0_2_91
*339 FILLER_0_3_26
*340 FILLER_0_3_31
*341 FILLER_0_3_51
*342 FILLER_0_3_55
*343 FILLER_0_3_57
*344 FILLER_0_3_6
*345 FILLER_0_3_65
*346 FILLER_0_3_69
*347 FILLER_0_3_79
*348 FILLER_0_3_91
*349 FILLER_0_4_18
*350 FILLER_0_4_24
*351 FILLER_0_4_34
*352 FILLER_0_4_48
*353 FILLER_0_4_6
*354 FILLER_0_4_60
*355 FILLER_0_4_72
*356 FILLER_0_4_85
*357 FILLER_0_4_97
*358 FILLER_0_5_24
*359 FILLER_0_5_3
*360 FILLER_0_5_46
*361 FILLER_0_5_55
*362 FILLER_0_5_61
*363 FILLER_0_5_73
*364 FILLER_0_5_85
*365 FILLER_0_5_93
*366 FILLER_0_6_15
*367 FILLER_0_6_27
*368 FILLER_0_6_29
*369 FILLER_0_6_41
*370 FILLER_0_6_49
*371 FILLER_0_6_54
*372 FILLER_0_6_66
*373 FILLER_0_6_7
*374 FILLER_0_6_77
*375 FILLER_0_6_97
*376 FILLER_0_7_102
*377 FILLER_0_7_15
*378 FILLER_0_7_3
*379 FILLER_0_7_31
*380 FILLER_0_7_43
*381 FILLER_0_7_55
*382 FILLER_0_7_61
*383 FILLER_0_7_98
*384 FILLER_0_8_25
*385 FILLER_0_8_29
*386 FILLER_0_8_57
*387 FILLER_0_8_65
*388 FILLER_0_8_70
*389 FILLER_0_8_78
*390 FILLER_0_8_88
*391 FILLER_0_8_99
*392 FILLER_0_9_20
*393 FILLER_0_9_28
*394 FILLER_0_9_46
*395 FILLER_0_9_54
*396 FILLER_0_9_57
*397 FILLER_0_9_6
*398 FILLER_0_9_69
*399 FILLER_0_9_81
*400 FILLER_0_9_93
*401 PHY_EDGE_ROW_0_Left_21
*402 PHY_EDGE_ROW_0_Right_0
*403 PHY_EDGE_ROW_10_Left_31
*404 PHY_EDGE_ROW_10_Right_10
*405 PHY_EDGE_ROW_11_Left_32
*406 PHY_EDGE_ROW_11_Right_11
*407 PHY_EDGE_ROW_12_Left_33
*408 PHY_EDGE_ROW_12_Right_12
*409 PHY_EDGE_ROW_13_Left_34
*410 PHY_EDGE_ROW_13_Right_13
*411 PHY_EDGE_ROW_14_Left_35
*412 PHY_EDGE_ROW_14_Right_14
*413 PHY_EDGE_ROW_15_Left_36
*414 PHY_EDGE_ROW_15_Right_15
*415 PHY_EDGE_ROW_16_Left_37
*416 PHY_EDGE_ROW_16_Right_16
*417 PHY_EDGE_ROW_17_Left_38
*418 PHY_EDGE_ROW_17_Right_17
*419 PHY_EDGE_ROW_18_Left_39
*420 PHY_EDGE_ROW_18_Right_18
*421 PHY_EDGE_ROW_19_Left_40
*422 PHY_EDGE_ROW_19_Right_19
*423 PHY_EDGE_ROW_1_Left_22
*424 PHY_EDGE_ROW_1_Right_1
*425 PHY_EDGE_ROW_20_Left_41
*426 PHY_EDGE_ROW_20_Right_20
*427 PHY_EDGE_ROW_2_Left_23
*428 PHY_EDGE_ROW_2_Right_2
*429 PHY_EDGE_ROW_3_Left_24
*430 PHY_EDGE_ROW_3_Right_3
*431 PHY_EDGE_ROW_4_Left_25
*432 PHY_EDGE_ROW_4_Right_4
*433 PHY_EDGE_ROW_5_Left_26
*434 PHY_EDGE_ROW_5_Right_5
*435 PHY_EDGE_ROW_6_Left_27
*436 PHY_EDGE_ROW_6_Right_6
*437 PHY_EDGE_ROW_7_Left_28
*438 PHY_EDGE_ROW_7_Right_7
*439 PHY_EDGE_ROW_8_Left_29
*440 PHY_EDGE_ROW_8_Right_8
*441 PHY_EDGE_ROW_9_Left_30
*442 PHY_EDGE_ROW_9_Right_9
*443 TAP_TAPCELL_ROW_0_42
*444 TAP_TAPCELL_ROW_0_43
*445 TAP_TAPCELL_ROW_0_44
*446 TAP_TAPCELL_ROW_10_58
*447 TAP_TAPCELL_ROW_10_59
*448 TAP_TAPCELL_ROW_11_60
*449 TAP_TAPCELL_ROW_12_61
*450 TAP_TAPCELL_ROW_12_62
*451 TAP_TAPCELL_ROW_13_63
*452 TAP_TAPCELL_ROW_14_64
*453 TAP_TAPCELL_ROW_14_65
*454 TAP_TAPCELL_ROW_15_66
*455 TAP_TAPCELL_ROW_16_67
*456 TAP_TAPCELL_ROW_16_68
*457 TAP_TAPCELL_ROW_17_69
*458 TAP_TAPCELL_ROW_18_70
*459 TAP_TAPCELL_ROW_18_71
*460 TAP_TAPCELL_ROW_19_72
*461 TAP_TAPCELL_ROW_1_45
*462 TAP_TAPCELL_ROW_20_73
*463 TAP_TAPCELL_ROW_20_74
*464 TAP_TAPCELL_ROW_20_75
*465 TAP_TAPCELL_ROW_2_46
*466 TAP_TAPCELL_ROW_2_47
*467 TAP_TAPCELL_ROW_3_48
*468 TAP_TAPCELL_ROW_4_49
*469 TAP_TAPCELL_ROW_4_50
*470 TAP_TAPCELL_ROW_5_51
*471 TAP_TAPCELL_ROW_6_52
*472 TAP_TAPCELL_ROW_6_53
*473 TAP_TAPCELL_ROW_7_54
*474 TAP_TAPCELL_ROW_8_55
*475 TAP_TAPCELL_ROW_8_56
*476 TAP_TAPCELL_ROW_9_57
*477 _161_
*478 _162_
*479 _163_
*480 _164_
*481 _165_
*482 _166_
*483 _167_
*484 _168_
*485 _169_
*486 _170_
*487 _171_
*488 _172_
*489 _173_
*490 _174_
*491 _175_
*492 _176_
*493 _177_
*494 _178_
*495 _179_
*496 _180_
*497 _181_
*498 _182_
*499 _183_
*500 _184_
*501 _185_
*502 _186_
*503 _187_
*504 _188_
*505 _189_
*506 _190_
*507 _191_
*508 _192_
*509 _193_
*510 _194_
*511 _195_
*512 _196_
*513 _197_
*514 _198_
*515 _199_
*516 _200_
*517 _201_
*518 _202_
*519 _203_
*520 _204_
*521 _205_
*522 _206_
*523 _207_
*524 _208_
*525 _209_
*526 _210_
*527 _211_
*528 _212_
*529 _213_
*530 _214_
*531 _215_
*532 _216_
*533 _217_
*534 _218_
*535 _219_
*536 _220_
*537 _221_
*538 _222_
*539 _223_
*540 _224_
*541 _225_
*542 _226_
*543 _227_
*544 _228_
*545 _229_
*546 _230_
*547 _231_
*548 _232_
*549 _233_
*550 _234_
*551 _235_
*552 _236_
*553 _237_
*554 _238_
*555 _239_
*556 _240_
*557 _241_
*558 _242_
*559 _243_
*560 _244_
*561 _245_
*562 _246_
*563 _247_
*564 _248_
*565 _249_
*566 _250_
*567 _251_
*568 _252_
*569 _253_
*570 _254_
*571 _255_
*572 _256_
*573 _257_
*574 _258_
*575 _259_
*576 _260_
*577 _261_
*578 _262_
*579 _263_
*580 _264_
*581 _265_
*582 _266_
*583 _267_
*584 _268_
*585 _269_
*586 _270_
*587 _271_
*588 _272_
*589 _273_
*590 _274_
*591 _275_
*592 _276_
*593 _277_
*594 _278_
*595 _279_
*596 _280_
*597 _281_
*598 _282_
*599 _283_
*600 _284_
*601 _285_
*602 _286_
*603 _287_
*604 _288_
*605 _289_
*606 _290_
*607 _291_
*608 _292_
*609 _293_
*610 _294_
*611 _295_
*612 _296_
*613 _297_
*614 _298_
*615 _299_
*616 _300_
*617 _301_
*618 _302_
*619 _303_
*620 _304_
*621 _305_
*622 _306_
*623 _307_
*624 _308_
*625 _309_
*626 _310_
*627 _311_
*628 _312_
*629 _313_
*630 _314_
*631 _315_
*632 _316_
*633 _317_
*634 _318_
*635 _319_
*636 _320_
*637 _321_
*638 _322_
*639 _323_
*640 _324_
*641 _325_
*642 _326_
*643 _327_
*644 _328_
*645 _329_
*646 input1
*647 input10
*648 input11
*649 input12
*650 input13
*651 input14
*652 input15
*653 input16
*654 input17
*655 input18
*656 input19
*657 input2
*658 input3
*659 input4
*660 input5
*661 input6
*662 input7
*663 input8
*664 input9
*665 output20
*666 output21
*667 output22
*668 output23
*669 output24
*670 output25
*671 output26
*672 output27

*PORTS
A[0] I
A[1] I
A[2] I
A[3] I
A[4] I
A[5] I
A[6] I
A[7] I
B[0] I
B[1] I
B[2] I
B[3] I
B[4] I
B[5] I
B[6] I
B[7] I
opcode[0] I
opcode[1] I
opcode[2] I
out[0] O
out[1] O
out[2] O
out[3] O
out[4] O
out[5] O
out[6] O
out[7] O

*D_NET *1 0.000642077
*CONN
*P A[0] I
*I *646:A I *D sky130_fd_sc_hd__buf_1
*CAP
1 A[0] 0.000317886
2 *646:A 0.000317886
3 *646:A *653:A 6.30563e-06
4 *646:A *657:A 0
5 *646:A *197:28 0
*RES
1 A[0] *646:A 7.8543 
*END

*D_NET *2 0.000596441
*CONN
*P A[1] I
*I *657:A I *D sky130_fd_sc_hd__buf_2
*CAP
1 A[1] 0.000233753
2 *657:A 0.000233753
3 *657:A *534:A2 6.44676e-05
4 *657:A *658:A 0
5 *657:A *197:28 6.44676e-05
6 *646:A *657:A 0
*RES
1 A[1] *657:A 5.35677 
*END

*D_NET *3 0.000535778
*CONN
*P A[2] I
*I *658:A I *D sky130_fd_sc_hd__buf_1
*CAP
1 A[2] 0.000261728
2 *658:A 0.000261728
3 *658:A *659:A 1.23223e-05
4 *657:A *658:A 0
*RES
1 A[2] *658:A 6.8343 
*END

*D_NET *4 0.000575381
*CONN
*P A[3] I
*I *659:A I *D sky130_fd_sc_hd__buf_1
*CAP
1 A[3] 0.000275947
2 *659:A 0.000275947
3 *659:A *660:A 5.33311e-06
4 *659:A *197:34 0
5 *659:A *197:56 5.83121e-06
6 *658:A *659:A 1.23223e-05
*RES
1 A[3] *659:A 7.0893 
*END

*D_NET *5 0.000706849
*CONN
*P A[4] I
*I *660:A I *D sky130_fd_sc_hd__clkbuf_2
*CAP
1 A[4] 0.000323136
2 *660:A 0.000323136
3 *660:A *661:A 6.30563e-06
4 *660:A *197:34 4.89395e-05
5 *660:A *214:10 0
6 *659:A *660:A 5.33311e-06
*RES
1 A[4] *660:A 7.9443 
*END

*D_NET *6 0.00052412
*CONN
*P A[5] I
*I *661:A I *D sky130_fd_sc_hd__dlymetal6s2s_1
*CAP
1 A[5] 0.000258907
2 *661:A 0.000258907
3 *661:A *662:A 0
4 *660:A *661:A 6.30563e-06
*RES
1 A[5] *661:A 6.8343 
*END

*D_NET *7 0.00117273
*CONN
*P A[6] I
*I *662:A I *D sky130_fd_sc_hd__clkbuf_2
*CAP
1 A[6] 0.00045841
2 *662:A 0.00045841
3 *662:A *663:A 0.000148198
4 *662:A *214:10 0.000107716
5 *661:A *662:A 0
*RES
1 A[6] *662:A 10.77 
*END

*D_NET *8 0.00169805
*CONN
*P A[7] I
*I *663:A I *D sky130_fd_sc_hd__buf_1
*CAP
1 A[7] 0.000680215
2 *663:A 0.000680215
3 *663:A *52:12 0
4 *663:A *214:10 0.000189426
5 *662:A *663:A 0.000148198
*RES
1 A[7] *663:A 14.0048 
*END

*D_NET *9 0.00178495
*CONN
*P B[0] I
*I *664:A I *D sky130_fd_sc_hd__clkbuf_2
*CAP
1 B[0] 0.000811305
2 *664:A 0.000811305
3 *664:A *528:B 0
4 *664:A *566:B 8.27745e-06
5 *664:A *647:A 0
6 *664:A *656:A 0.00011613
7 *664:A *170:10 3.79291e-05
8 *664:A *201:12 0
*RES
1 B[0] *664:A 7.7475 
*END

*D_NET *10 0.00151227
*CONN
*P B[1] I
*I *647:A I *D sky130_fd_sc_hd__buf_1
*CAP
1 B[1] 0.000487026
2 *647:A 0.000487026
3 *647:A *477:A 0.000128076
4 *647:A *477:B 0.000205997
5 *647:A *566:A 0
6 *647:A *648:A 0
7 *647:A *175:14 6.23206e-05
8 *647:A *180:16 0
9 *647:A *199:26 3.80467e-05
10 *647:A *200:16 0.000103781
11 *664:A *647:A 0
*RES
1 B[1] *647:A 10.1216 
*END

*D_NET *11 0.000540341
*CONN
*P B[2] I
*I *648:A I *D sky130_fd_sc_hd__buf_1
*CAP
1 B[2] 0.00026401
2 *648:A 0.00026401
3 *648:A *649:A 1.23223e-05
4 *647:A *648:A 0
*RES
1 B[2] *648:A 6.8343 
*END

*D_NET *12 0.000570776
*CONN
*P B[3] I
*I *649:A I *D sky130_fd_sc_hd__buf_1
*CAP
1 B[3] 0.000279227
2 *649:A 0.000279227
3 *649:A *650:A 0
4 *649:A *175:14 0
5 *648:A *649:A 1.23223e-05
*RES
1 B[3] *649:A 7.0893 
*END

*D_NET *13 0.000747447
*CONN
*P B[4] I
*I *650:A I *D sky130_fd_sc_hd__clkbuf_2
*CAP
1 B[4] 0.000274323
2 *650:A 0.000274323
3 *650:A *651:A 8.67624e-06
4 *650:A *175:14 0.00012395
5 *650:A *195:8 6.61731e-05
6 *649:A *650:A 0
*RES
1 B[4] *650:A 6.18003 
*END

*D_NET *14 0.000527218
*CONN
*P B[5] I
*I *651:A I *D sky130_fd_sc_hd__dlymetal6s2s_1
*CAP
1 B[5] 0.000259271
2 *651:A 0.000259271
3 *651:A *652:A 0
4 *650:A *651:A 8.67624e-06
*RES
1 B[5] *651:A 6.8343 
*END

*D_NET *15 0.000672472
*CONN
*P B[6] I
*I *652:A I *D sky130_fd_sc_hd__dlymetal6s2s_1
*CAP
1 B[6] 0.000254414
2 *652:A 0.000254414
3 *652:A *653:A 1.11399e-05
4 *652:A *196:10 0.000152503
5 *651:A *652:A 0
*RES
1 B[6] *652:A 6.37677 
*END

*D_NET *16 0.000560021
*CONN
*P B[7] I
*I *653:A I *D sky130_fd_sc_hd__buf_1
*CAP
1 B[7] 0.000268372
2 *653:A 0.000268372
3 *653:A *197:28 5.83121e-06
4 *646:A *653:A 6.30563e-06
5 *652:A *653:A 1.11399e-05
*RES
1 B[7] *653:A 7.0893 
*END

*D_NET *19 0.00222272
*CONN
*P opcode[0] I
*I *654:A I *D sky130_fd_sc_hd__buf_1
*CAP
1 opcode[0] 0.00111136
2 *654:A 0.00111136
3 *654:A *655:A 0
4 *654:A *656:A 0
*RES
1 opcode[0] *654:A 13.6402 
*END

*D_NET *20 0.000895463
*CONN
*P opcode[1] I
*I *655:A I *D sky130_fd_sc_hd__dlymetal6s2s_1
*CAP
1 opcode[1] 0.000447732
2 *655:A 0.000447732
3 *655:A *656:A 0
4 *654:A *655:A 0
*RES
1 opcode[1] *655:A 8.92677 
*END

*D_NET *21 0.00186091
*CONN
*P opcode[2] I
*I *656:A I *D sky130_fd_sc_hd__buf_2
*CAP
1 opcode[2] 0.000872389
2 *656:A 0.000872389
3 *654:A *656:A 0
4 *655:A *656:A 0
5 *664:A *656:A 0.00011613
*RES
1 opcode[2] *656:A 6.39883 
*END

*D_NET *22 0.000861268
*CONN
*P out[0] O
*I *665:X O *D sky130_fd_sc_hd__buf_2
*CAP
1 out[0] 0.000430634
2 *665:X 0.000430634
*RES
1 *665:X out[0] 8.47503 
*END

*D_NET *23 0.000517446
*CONN
*P out[1] O
*I *666:X O *D sky130_fd_sc_hd__buf_2
*CAP
1 out[1] 0.000253254
2 *666:X 0.000253254
3 out[1] *666:A 1.09383e-05
*RES
1 *666:X out[1] 4.90503 
*END

*D_NET *24 0.00053073
*CONN
*P out[2] O
*I *667:X O *D sky130_fd_sc_hd__buf_2
*CAP
1 out[2] 0.000245133
2 *667:X 0.000245133
3 out[2] *667:A 0
4 out[2] *156:25 4.04634e-05
*RES
1 *667:X out[2] 5.16003 
*END

*D_NET *25 0.000637045
*CONN
*P out[3] O
*I *668:X O *D sky130_fd_sc_hd__buf_2
*CAP
1 out[3] 0.000318523
2 *668:X 0.000318523
3 out[3] *159:10 0
*RES
1 *668:X out[3] 6.9537 
*END

*D_NET *26 0.000635777
*CONN
*P out[4] O
*I *669:X O *D sky130_fd_sc_hd__buf_2
*CAP
1 out[4] 0.000299775
2 *669:X 0.000299775
3 out[4] *669:A 3.6227e-05
*RES
1 *669:X out[4] 5.92503 
*END

*D_NET *27 0.00049509
*CONN
*P out[5] O
*I *670:X O *D sky130_fd_sc_hd__buf_2
*CAP
1 out[5] 0.000247545
2 *670:X 0.000247545
*RES
1 *670:X out[5] 4.90503 
*END

*D_NET *28 0.000633047
*CONN
*P out[6] O
*I *671:X O *D sky130_fd_sc_hd__buf_2
*CAP
1 out[6] 0.000316524
2 *671:X 0.000316524
*RES
1 *671:X out[6] 6.31677 
*END

*D_NET *29 0.0018978
*CONN
*P out[7] O
*I *672:X O *D sky130_fd_sc_hd__buf_2
*CAP
1 out[7] 0.000948901
2 *672:X 0.000948901
*RES
1 *672:X out[7] 12.7194 
*END

*D_NET *30 0.00243046
*CONN
*I *630:A1 I *D sky130_fd_sc_hd__a31o_1
*I *564:A1 I *D sky130_fd_sc_hd__a311o_2
*I *629:A1 I *D sky130_fd_sc_hd__a21oi_1
*I *638:A1 I *D sky130_fd_sc_hd__a31o_1
*I *549:X O *D sky130_fd_sc_hd__or2b_1
*CAP
1 *630:A1 4.74281e-05
2 *564:A1 0
3 *629:A1 0.000122562
4 *638:A1 0
5 *549:X 0.000153081
6 *30:25 0.000186445
7 *30:21 0.000211394
8 *30:12 0.000253164
9 *629:A1 *564:A2 8.7152e-06
10 *629:A1 *629:B1 2.88357e-05
11 *629:A1 *639:A 0.000141028
12 *629:A1 *643:A3 4.28112e-06
13 *629:A1 *48:38 0.000188125
14 *629:A1 *120:26 3.27181e-06
15 *630:A1 *38:32 2.61093e-05
16 *630:A1 *48:57 4.77757e-05
17 *30:12 *564:B1 9.50342e-06
18 *30:12 *38:10 9.42224e-05
19 *30:12 *42:14 0.000106655
20 *30:12 *120:26 0.000293032
21 *30:12 *211:16 4.82919e-05
22 *30:21 *638:A2 4.66742e-05
23 *30:21 *38:32 1.19928e-05
24 *30:25 *564:A2 0.000148462
25 *30:25 *38:10 5.23362e-05
26 *30:25 *48:38 0.000176396
27 *30:25 *48:57 2.06767e-05
*RES
1 *549:X *30:12 9.47 
2 *30:12 *638:A1 1.6 
3 *30:12 *30:21 1.5 
4 *30:21 *30:25 4.4 
5 *30:25 *629:A1 6.87 
6 *30:25 *564:A1 3.6 
7 *30:21 *630:A1 2.755 
*END

*D_NET *31 0.000848729
*CONN
*I *554:B I *D sky130_fd_sc_hd__nor3_1
*I *552:A1 I *D sky130_fd_sc_hd__o21a_1
*I *550:X O *D sky130_fd_sc_hd__and3_1
*CAP
1 *554:B 0.000229784
2 *552:A1 3.43921e-05
3 *550:X 3.68014e-05
4 *31:6 0.000300978
5 *554:B *552:B1 3.03931e-05
6 *554:B *120:14 8.70721e-05
7 *554:B *144:14 0.000109209
8 *31:6 *478:B 5.83121e-06
9 *31:6 *120:14 1.42674e-05
*RES
1 *550:X *31:6 2.05 
2 *31:6 *552:A1 2.215 
3 *31:6 *554:B 9.155 
*END

*D_NET *32 0.00101275
*CONN
*I *554:C I *D sky130_fd_sc_hd__nor3_1
*I *552:A2 I *D sky130_fd_sc_hd__o21a_1
*I *551:Y O *D sky130_fd_sc_hd__a21oi_1
*CAP
1 *554:C 0.000188614
2 *552:A2 0
3 *551:Y 8.72568e-05
4 *32:10 0.00027587
5 *554:C *481:B 7.25618e-05
6 *554:C *552:B1 0.000159145
7 *554:C *558:A1 0
8 *554:C *33:12 0
9 *554:C *119:25 3.10366e-05
10 *554:C *123:12 1.92979e-05
11 *554:C *217:16 0.00012398
12 *32:10 *550:B 2.65814e-06
13 *32:10 *33:12 0
14 *32:10 *119:25 3.79351e-05
15 *32:10 *127:53 1.4399e-05
*RES
1 *551:Y *32:10 4.92 
2 *32:10 *552:A2 3.6 
3 *32:10 *554:C 7.74 
*END

*D_NET *33 0.00223938
*CONN
*I *555:B1 I *D sky130_fd_sc_hd__a211oi_1
*I *615:A1 I *D sky130_fd_sc_hd__o211a_1
*I *621:B I *D sky130_fd_sc_hd__or3_1
*I *557:A1 I *D sky130_fd_sc_hd__o21ai_2
*I *552:X O *D sky130_fd_sc_hd__o21a_1
*CAP
1 *555:B1 3.56486e-05
2 *615:A1 1.19504e-05
3 *621:B 9.26267e-05
4 *557:A1 1.85694e-05
5 *552:X 8.85658e-05
6 *33:36 0.000114846
7 *33:23 0.000226373
8 *33:12 0.000173635
9 *555:B1 *555:A2 3.6355e-05
10 *555:B1 *555:C1 0.000149455
11 *555:B1 *616:A 2.01504e-05
12 *555:B1 *34:25 2.01934e-05
13 *555:B1 *144:44 0.000123969
14 *557:A1 *557:A2 9.53428e-06
15 *615:A1 *555:C1 4.77769e-05
16 *615:A1 *34:25 2.69153e-05
17 *621:B *557:B1 1.08732e-05
18 *621:B *616:C 1.26548e-05
19 *621:B *621:C 0.000182138
20 *621:B *625:A2 0
21 *621:B *625:B1 7.21296e-06
22 *621:B *36:10 2.92496e-05
23 *621:B *37:8 3.05295e-05
24 *621:B *38:10 6.48472e-05
25 *621:B *47:32 8.53113e-06
26 *621:B *120:26 8.56198e-05
27 *33:12 *558:A1 9.30787e-05
28 *33:12 *34:16 8.23457e-05
29 *33:12 *217:109 2.31229e-05
30 *33:23 *557:A2 8.49205e-05
31 *33:23 *557:B1 1.91597e-05
32 *33:23 *34:16 8.40269e-05
33 *33:23 *217:109 6.07575e-06
34 *33:36 *35:12 5.31158e-06
35 *33:36 *36:10 0.000105624
36 *33:36 *47:32 9.37731e-05
37 *33:36 *141:22 0
38 *33:36 *217:22 1.37188e-05
39 *554:C *33:12 0
40 *32:10 *33:12 0
*RES
1 *552:X *33:12 7.52 
2 *33:12 *557:A1 1.96 
3 *33:12 *33:23 3.485 
4 *33:23 *621:B 6.765 
5 *33:23 *33:36 3.89 
6 *33:36 *615:A1 2.05 
7 *33:36 *555:B1 3.43 
*END

*D_NET *34 0.00302792
*CONN
*I *555:A1 I *D sky130_fd_sc_hd__a211oi_1
*I *609:A1 I *D sky130_fd_sc_hd__a21o_1
*I *615:B1 I *D sky130_fd_sc_hd__o211a_1
*I *553:Y O *D sky130_fd_sc_hd__inv_2
*CAP
1 *555:A1 0
2 *609:A1 0.000310223
3 *615:B1 0
4 *553:Y 0.000284505
5 *34:25 0.000628816
6 *34:16 0.000603098
7 *609:A1 *606:B1 0.000131365
8 *609:A1 *608:A2 0.000131602
9 *609:A1 *609:A2 4.89295e-05
10 *609:A1 *609:B1 9.00787e-05
11 *609:A1 *144:52 6.94735e-06
12 *609:A1 *171:10 2.06497e-05
13 *34:16 *555:C1 4.21674e-05
14 *34:16 *36:10 9.10682e-05
15 *34:16 *47:32 5.57375e-05
16 *34:16 *127:53 2.65814e-06
17 *34:16 *217:22 9.10682e-05
18 *34:16 *217:109 1.29866e-05
19 *34:25 *555:A2 0.000118081
20 *34:25 *555:C1 2.45932e-05
21 *34:25 *144:44 0.000119866
22 *555:B1 *34:25 2.01934e-05
23 *615:A1 *34:25 2.69153e-05
24 *33:12 *34:16 8.23457e-05
25 *33:23 *34:16 8.40269e-05
*RES
1 *553:Y *34:16 10.31 
2 *34:16 *615:B1 1.6 
3 *34:16 *34:25 4.17 
4 *34:25 *609:A1 11.27 
5 *34:25 *555:A1 1.6 
*END

*D_NET *35 0.00124664
*CONN
*I *615:A2 I *D sky130_fd_sc_hd__o211a_1
*I *555:C1 I *D sky130_fd_sc_hd__a211oi_1
*I *554:Y O *D sky130_fd_sc_hd__nor3_1
*CAP
1 *615:A2 0
2 *555:C1 5.90001e-05
3 *554:Y 0.000170083
4 *35:12 0.000229083
5 *555:C1 *616:A 4.89295e-05
6 *555:C1 *36:10 0.000158553
7 *555:C1 *47:32 1.33285e-05
8 *35:12 *552:B1 0.000119247
9 *35:12 *144:44 3.06667e-05
10 *35:12 *202:114 3.57349e-05
11 *35:12 *217:22 0.000112714
12 *555:B1 *555:C1 0.000149455
13 *615:A1 *555:C1 4.77769e-05
14 *33:36 *35:12 5.31158e-06
15 *34:16 *555:C1 4.21674e-05
16 *34:25 *555:C1 2.45932e-05
*RES
1 *554:Y *35:12 8.465 
2 *35:12 *555:C1 4.135 
3 *35:12 *615:A2 1.6 
*END

*D_NET *36 0.00223529
*CONN
*I *616:A I *D sky130_fd_sc_hd__or3_1
*I *557:A2 I *D sky130_fd_sc_hd__o21ai_2
*I *621:C I *D sky130_fd_sc_hd__or3_1
*I *555:Y O *D sky130_fd_sc_hd__a211oi_1
*CAP
1 *616:A 0.000176766
2 *557:A2 4.69168e-05
3 *621:C 5.10004e-05
4 *555:Y 0
5 *36:10 0.000207785
6 *36:4 0.000286635
7 *557:A2 *557:B1 4.66108e-05
8 *557:A2 *625:A1 0
9 *557:A2 *217:109 3.64998e-06
10 *616:A *555:A2 2.35892e-05
11 *616:A *606:B1 6.74916e-06
12 *616:A *141:12 0.000109198
13 *616:A *141:22 0.000158048
14 *616:A *141:42 4.66108e-05
15 *616:A *173:22 6.91124e-05
16 *621:C *557:B1 0.000161419
17 *621:C *217:22 1.1561e-05
18 *36:10 *47:32 8.23457e-05
19 *36:10 *217:22 1.71207e-05
20 *555:B1 *616:A 2.01504e-05
21 *555:C1 *616:A 4.89295e-05
22 *555:C1 *36:10 0.000158553
23 *557:A1 *557:A2 9.53428e-06
24 *621:B *621:C 0.000182138
25 *621:B *36:10 2.92496e-05
26 *33:23 *557:A2 8.49205e-05
27 *33:36 *36:10 0.000105624
28 *34:16 *36:10 9.10682e-05
*RES
1 *555:Y *36:4 1.6 
2 *36:4 *36:10 5.12 
3 *36:10 *621:C 5.745 
4 *36:10 *557:A2 4.755 
5 *36:4 *616:A 9.755 
*END

*D_NET *37 0.00142833
*CONN
*I *557:B1 I *D sky130_fd_sc_hd__o21ai_2
*I *621:A I *D sky130_fd_sc_hd__or3_1
*I *556:Y O *D sky130_fd_sc_hd__xnor2_1
*CAP
1 *557:B1 0.000109865
2 *621:A 5.86535e-05
3 *556:Y 0.000108388
4 *37:8 0.000276907
5 *557:B1 *38:6 4.82919e-05
6 *557:B1 *47:32 7.00889e-06
7 *557:B1 *217:22 5.4003e-05
8 *557:B1 *217:24 0.000128266
9 *37:8 *120:26 8.23624e-05
10 *37:8 *217:24 0.000285986
11 *557:A2 *557:B1 4.66108e-05
12 *621:B *557:B1 1.08732e-05
13 *621:B *37:8 3.05295e-05
14 *621:C *557:B1 0.000161419
15 *33:23 *557:B1 1.91597e-05
*RES
1 *556:Y *37:8 7.02 
2 *37:8 *621:A 4.395 
3 *37:8 *557:B1 6.885 
*END

*D_NET *38 0.00402171
*CONN
*I *625:A1 I *D sky130_fd_sc_hd__a31o_1
*I *629:A2 I *D sky130_fd_sc_hd__a21oi_1
*I *630:A2 I *D sky130_fd_sc_hd__a31o_1
*I *638:A2 I *D sky130_fd_sc_hd__a31o_1
*I *564:A2 I *D sky130_fd_sc_hd__a311o_2
*I *557:Y O *D sky130_fd_sc_hd__o21ai_2
*CAP
1 *625:A1 6.81175e-05
2 *629:A2 0.000145855
3 *630:A2 9.01837e-06
4 *638:A2 6.95871e-05
5 *564:A2 7.71386e-05
6 *557:Y 4.83274e-05
7 *38:32 0.000274633
8 *38:21 0.000189346
9 *38:10 0.00062939
10 *38:6 0.000668696
11 *564:A2 *564:B1 0.00011852
12 *564:A2 *120:26 1.38321e-05
13 *625:A1 *616:C 4.60123e-05
14 *629:A2 *629:B1 9.54399e-05
15 *629:A2 *44:18 1.3024e-05
16 *629:A2 *48:38 3.16057e-06
17 *629:A2 *48:57 2.20544e-05
18 *629:A2 *171:50 0.000131412
19 *630:A2 *634:A2 3.50152e-06
20 *38:6 *616:C 5.83121e-06
21 *38:6 *47:32 9.80032e-06
22 *38:10 *564:B1 2.23922e-05
23 *38:10 *625:A3 0
24 *38:10 *625:B1 9.54399e-05
25 *38:10 *628:B_N 4.9968e-05
26 *38:10 *42:14 0.000116158
27 *38:10 *47:53 0
28 *38:10 *48:57 1.26626e-05
29 *38:10 *103:8 0
30 *38:10 *120:26 0.00056905
31 *38:32 *48:57 1.16854e-05
32 *557:A2 *625:A1 0
33 *557:B1 *38:6 4.82919e-05
34 *621:B *38:10 6.48472e-05
35 *629:A1 *564:A2 8.7152e-06
36 *630:A1 *38:32 2.61093e-05
37 *30:12 *38:10 9.42224e-05
38 *30:21 *638:A2 4.66742e-05
39 *30:21 *38:32 1.19928e-05
40 *30:25 *564:A2 0.000148462
41 *30:25 *38:10 5.23362e-05
*RES
1 *557:Y *38:6 2.395 
2 *38:6 *38:10 14.09 
3 *38:10 *564:A2 5.49 
4 *38:10 *38:21 2 
5 *38:21 *638:A2 2.74 
6 *38:21 *38:32 1.845 
7 *38:32 *630:A2 1.96 
8 *38:32 *629:A2 8.585 
9 *38:6 *625:A1 2.755 
*END

*D_NET *39 0.000795828
*CONN
*I *559:B I *D sky130_fd_sc_hd__xnor2_1
*I *558:X O *D sky130_fd_sc_hd__o31a_1
*CAP
1 *559:B 0.000147398
2 *558:X 0.000147398
3 *559:B *547:A2 0.000160314
4 *559:B *127:21 8.52845e-05
5 *559:B *192:12 3.30017e-05
6 *559:B *192:23 5.88283e-05
7 *559:B *194:10 0.000132319
8 *559:B *194:16 3.12855e-05
*RES
1 *558:X *559:B 11.265 
*END

*D_NET *40 0.00279911
*CONN
*I *561:B I *D sky130_fd_sc_hd__nor2_1
*I *560:B I *D sky130_fd_sc_hd__nand2_1
*I *559:Y O *D sky130_fd_sc_hd__xnor2_1
*CAP
1 *561:B 0.000229875
2 *560:B 0
3 *559:Y 0.000724912
4 *40:18 0.000954787
5 *561:B *560:A 0.000140718
6 *561:B *628:B_N 5.95416e-05
7 *561:B *41:10 6.07575e-06
8 *40:18 *539:A1 0.00011599
9 *40:18 *539:A3 6.88421e-05
10 *40:18 *547:A1 7.10593e-06
11 *40:18 *548:A 6.89431e-05
12 *40:18 *548:B 0.000123133
13 *40:18 *41:10 1.56428e-05
14 *40:18 *180:22 0
15 *40:18 *190:8 8.35068e-05
16 *40:18 *191:16 0.00020004
*RES
1 *559:Y *40:18 17.03 
2 *40:18 *560:B 1.6 
3 *40:18 *561:B 5.53 
*END

*D_NET *41 0.00171898
*CONN
*I *628:B_N I *D sky130_fd_sc_hd__or2b_1
*I *638:A3 I *D sky130_fd_sc_hd__a31o_1
*I *564:A3 I *D sky130_fd_sc_hd__a311o_2
*I *560:Y O *D sky130_fd_sc_hd__nand2_1
*CAP
1 *628:B_N 0.000116083
2 *638:A3 0
3 *564:A3 9.56037e-05
4 *560:Y 0
5 *41:10 0.000199373
6 *41:4 0.000219853
7 *564:A3 *564:B1 1.14192e-05
8 *564:A3 *639:A 0.000120417
9 *564:A3 *120:26 0.000161742
10 *564:A3 *124:14 0.000163086
11 *628:B_N *560:A 0.000141489
12 *628:B_N *42:8 0
13 *628:B_N *42:14 8.33341e-05
14 *41:10 *120:26 0.000141592
15 *41:10 *124:14 0.000133763
16 *561:B *628:B_N 5.95416e-05
17 *561:B *41:10 6.07575e-06
18 *38:10 *628:B_N 4.9968e-05
19 *40:18 *41:10 1.56428e-05
*RES
1 *560:Y *41:4 1.6 
2 *41:4 *41:10 4.43 
3 *41:10 *564:A3 6.63 
4 *41:10 *638:A3 3.6 
5 *41:4 *628:B_N 8.495 
*END

*D_NET *42 0.00153192
*CONN
*I *628:A I *D sky130_fd_sc_hd__or2b_1
*I *638:B1 I *D sky130_fd_sc_hd__a31o_1
*I *564:B1 I *D sky130_fd_sc_hd__a311o_2
*I *561:Y O *D sky130_fd_sc_hd__nor2_1
*CAP
1 *628:A 0
2 *638:B1 0
3 *564:B1 0.000153181
4 *561:Y 7.98131e-05
5 *42:14 0.000301118
6 *42:8 0.00022775
7 *564:B1 *629:B1 3.21081e-06
8 *564:B1 *639:A 6.63287e-05
9 *564:B1 *120:26 7.26629e-05
10 *42:8 *560:A 0.000123589
11 *42:14 *560:A 3.62878e-05
12 *564:A2 *564:B1 0.00011852
13 *564:A3 *564:B1 1.14192e-05
14 *628:B_N *42:8 0
15 *628:B_N *42:14 8.33341e-05
16 *30:12 *564:B1 9.50342e-06
17 *30:12 *42:14 0.000106655
18 *38:10 *564:B1 2.23922e-05
19 *38:10 *42:14 0.000116158
*RES
1 *561:Y *42:8 3.1 
2 *42:8 *42:14 4.865 
3 *42:14 *564:B1 7.095 
4 *42:14 *638:B1 3.6 
5 *42:8 *628:A 1.6 
*END

*D_NET *43 0.00137099
*CONN
*I *563:B I *D sky130_fd_sc_hd__nand2_1
*I *562:X O *D sky130_fd_sc_hd__or2_1
*CAP
1 *563:B 0.000365606
2 *562:X 0.000365606
3 *563:B *546:B 4.89395e-05
4 *563:B *563:A 0.000261072
5 *563:B *595:B 0.00011099
6 *563:B *44:18 5.12462e-05
7 *563:B *188:6 0.000156774
8 *563:B *213:25 1.07593e-05
*RES
1 *562:X *563:B 12.825 
*END

*D_NET *44 0.0015652
*CONN
*I *564:C1 I *D sky130_fd_sc_hd__a311o_2
*I *639:A I *D sky130_fd_sc_hd__nand2_1
*I *563:Y O *D sky130_fd_sc_hd__nand2_1
*CAP
1 *564:C1 0
2 *639:A 0.00015598
3 *563:Y 0.000242315
4 *44:18 0.000398295
5 *639:A *643:A3 0.000157394
6 *44:18 *563:A 5.12462e-05
7 *44:18 *595:B 1.78798e-05
8 *44:18 *643:A3 0
9 *44:18 *48:38 0.000133919
10 *44:18 *171:50 1.61262e-05
11 *563:B *44:18 5.12462e-05
12 *564:A3 *639:A 0.000120417
13 *564:B1 *639:A 6.63287e-05
14 *629:A1 *639:A 0.000141028
15 *629:A2 *44:18 1.3024e-05
*RES
1 *563:Y *44:18 9.965 
2 *44:18 *639:A 5.53 
3 *44:18 *564:C1 1.6 
*END

*D_NET *45 0.003411
*CONN
*I *643:A1 I *D sky130_fd_sc_hd__a31o_1
*I *565:C I *D sky130_fd_sc_hd__and3_1
*I *577:A3 I *D sky130_fd_sc_hd__a31o_1
*I *576:A3 I *D sky130_fd_sc_hd__a311oi_2
*I *568:A2 I *D sky130_fd_sc_hd__a21oi_1
*I *564:X O *D sky130_fd_sc_hd__a311o_2
*CAP
1 *643:A1 0
2 *565:C 1.34936e-05
3 *577:A3 0.000208293
4 *576:A3 0.00020661
5 *568:A2 5.78613e-05
6 *564:X 5.36188e-05
7 *45:38 0.000312952
8 *45:12 0.000289943
9 *45:10 0.000301114
10 *45:8 0.000238096
11 *565:C *537:B1 5.42997e-05
12 *565:C *569:C 3.06789e-05
13 *568:A2 *47:63 5.94456e-06
14 *568:A2 *214:39 8.53113e-06
15 *576:A3 *543:A 4.38103e-05
16 *576:A3 *576:A2 0.000141418
17 *576:A3 *186:12 0.000136877
18 *576:A3 *188:22 5.16418e-05
19 *576:A3 *188:26 3.22299e-05
20 *576:A3 *214:39 3.43788e-05
21 *576:A3 *214:41 2.41231e-05
22 *577:A3 *567:A 9.09788e-06
23 *577:A3 *577:A2 2.72397e-05
24 *577:A3 *595:B 2.01629e-05
25 *577:A3 *186:12 3.50033e-05
26 *577:A3 *188:26 9.03657e-05
27 *45:8 *595:B 8.86398e-05
28 *45:8 *120:26 0.000130618
29 *45:8 *124:14 1.57575e-05
30 *45:10 *479:A 0.000139231
31 *45:10 *595:B 0
32 *45:10 *120:26 1.10803e-05
33 *45:10 *120:28 0.00019841