*SPEF "ieee 1481-1999"
*DESIGN "lab2"
*DATE "11:04:51 Sunday May 04, 2025"
*VENDOR "The OpenROAD Project"
*PROGRAM "OpenROAD"
*VERSION "b16bda7e82721d10566ff7e2b68f1ff0be9f9e38"
*DESIGN_FLOW "NAME_SCOPE LOCAL" "PIN_CAP NONE"
*DIVIDER /
*DELIMITER :
*BUS_DELIMITER []
*T_UNIT 1 NS
*C_UNIT 1 PF
*R_UNIT 1 OHM
*L_UNIT 1 HENRY

*NAME_MAP
*1 A[0]
*2 A[1]
*3 A[2]
*4 A[3]
*5 A[4]
*6 A[5]
*7 A[6]
*8 A[7]
*9 B[0]
*10 B[1]
*11 B[2]
*12 B[3]
*13 B[4]
*14 B[5]
*15 B[6]
*16 B[7]
*19 opcode[0]
*20 opcode[1]
*21 opcode[2]
*22 out[0]
*23 out[1]
*24 out[2]
*25 out[3]
*26 out[4]
*27 out[5]
*28 out[6]
*29 out[7]
*30 _000_
*31 _001_
*32 _002_
*33 _003_
*34 _004_
*35 _005_
*36 _006_
*37 _007_
*38 _008_
*39 _009_
*40 _010_
*41 _011_
*42 _012_
*43 _013_
*44 _014_
*45 _015_
*46 _016_
*47 _017_
*48 _018_
*49 _019_
*50 _020_
*51 _021_
*52 _022_
*53 _023_
*54 _024_
*55 _025_
*56 _026_
*57 _027_
*58 _028_
*59 _029_
*60 _030_
*61 _031_
*62 _032_
*63 _033_
*64 _034_
*65 _035_
*66 _036_
*67 _037_
*68 _038_
*69 _039_
*70 _040_
*71 _041_
*72 _042_
*73 _043_
*74 _044_
*75 _045_
*76 _046_
*77 _047_
*78 _048_
*79 _049_
*80 _050_
*81 _051_
*82 _052_
*83 _053_
*84 _054_
*85 _055_
*86 _056_
*87 _057_
*88 _058_
*89 _059_
*90 _060_
*91 _061_
*92 _062_
*93 _063_
*94 _064_
*95 _065_
*96 _066_
*97 _067_
*98 _068_
*99 _069_
*100 _070_
*101 _071_
*102 _072_
*103 _073_
*104 _074_
*105 _075_
*106 _076_
*107 _077_
*108 _078_
*109 _079_
*110 _080_
*111 _081_
*112 _082_
*113 _083_
*114 _084_
*115 _085_
*116 _086_
*117 _087_
*118 _088_
*119 _089_
*120 _090_
*121 _091_
*122 _092_
*123 _093_
*124 _094_
*125 _095_
*126 _096_
*127 _097_
*128 _098_
*129 _099_
*130 _100_
*131 _101_
*132 _102_
*133 _103_
*134 _104_
*135 _105_
*136 _106_
*137 _107_
*138 _108_
*139 _109_
*140 _110_
*141 _111_
*142 _112_
*143 _113_
*144 _114_
*145 _115_
*146 _116_
*147 _117_
*148 _118_
*149 _119_
*150 _120_
*151 _121_
*152 _122_
*153 _123_
*154 _124_
*155 _125_
*156 _126_
*157 _127_
*158 _128_
*159 _129_
*160 _130_
*161 _131_
*162 _132_
*163 _133_
*164 _134_
*165 _135_
*166 _136_
*167 _137_
*168 _138_
*169 _139_
*170 _140_
*171 _141_
*172 _142_
*173 _143_
*174 _144_
*175 _145_
*176 _146_
*177 _147_
*178 _148_
*179 _149_
*180 _150_
*181 _151_
*182 _152_
*183 _153_
*184 _154_
*185 _155_
*186 _156_
*187 _157_
*188 _158_
*189 _159_
*190 _160_
*191 net1
*192 net10
*193 net11
*194 net12
*195 net13
*196 net14
*197 net15
*198 net16
*199 net17
*200 net18
*201 net19
*202 net2
*203 net20
*204 net21
*205 net22
*206 net23
*207 net24
*208 net25
*209 net26
*210 net27
*211 net3
*212 net4
*213 net5
*214 net6
*215 net7
*216 net8
*217 net9
*218 FILLER_0_0_13
*219 FILLER_0_0_25
*220 FILLER_0_0_29
*221 FILLER_0_0_41
*222 FILLER_0_0_53
*223 FILLER_0_0_57
*224 FILLER_0_0_69
*225 FILLER_0_0_81
*226 FILLER_0_0_85
*227 FILLER_0_0_97
*228 FILLER_0_10_21
*229 FILLER_0_10_27
*230 FILLER_0_10_29
*231 FILLER_0_10_3
*232 FILLER_0_10_51
*233 FILLER_0_10_59
*234 FILLER_0_10_7
*235 FILLER_0_10_76
*236 FILLER_0_10_85
*237 FILLER_0_10_97
*238 FILLER_0_11_13
*239 FILLER_0_11_25
*240 FILLER_0_11_33
*241 FILLER_0_11_46
*242 FILLER_0_11_52
*243 FILLER_0_11_57
*244 FILLER_0_11_82
*245 FILLER_0_11_97
*246 FILLER_0_12_26
*247 FILLER_0_12_29
*248 FILLER_0_12_41
*249 FILLER_0_12_45
*250 FILLER_0_12_78
*251 FILLER_0_12_85
*252 FILLER_0_13_102
*253 FILLER_0_13_25
*254 FILLER_0_13_34
*255 FILLER_0_13_46
*256 FILLER_0_13_54
*257 FILLER_0_13_64
*258 FILLER_0_13_76
*259 FILLER_0_13_80
*260 FILLER_0_13_98
*261 FILLER_0_14_11
*262 FILLER_0_14_23
*263 FILLER_0_14_27
*264 FILLER_0_14_29
*265 FILLER_0_14_37
*266 FILLER_0_14_43
*267 FILLER_0_14_50
*268 FILLER_0_14_62
*269 FILLER_0_14_7
*270 FILLER_0_14_74
*271 FILLER_0_14_82
*272 FILLER_0_14_91
*273 FILLER_0_15_21
*274 FILLER_0_15_33
*275 FILLER_0_15_39
*276 FILLER_0_15_55
*277 FILLER_0_15_57
*278 FILLER_0_15_69
*279 FILLER_0_15_78
*280 FILLER_0_15_9
*281 FILLER_0_15_90
*282 FILLER_0_15_98
*283 FILLER_0_16_100
*284 FILLER_0_16_17
*285 FILLER_0_16_29
*286 FILLER_0_16_49
*287 FILLER_0_16_55
*288 FILLER_0_16_6
*289 FILLER_0_16_61
*290 FILLER_0_16_70
*291 FILLER_0_16_80
*292 FILLER_0_17_17
*293 FILLER_0_17_3
*294 FILLER_0_17_44
*295 FILLER_0_17_53
*296 FILLER_0_17_57
*297 FILLER_0_17_95
*298 FILLER_0_18_26
*299 FILLER_0_18_3
*300 FILLER_0_18_37
*301 FILLER_0_18_53
*302 FILLER_0_18_81
*303 FILLER_0_18_85
*304 FILLER_0_18_97
*305 FILLER_0_19_25
*306 FILLER_0_19_37
*307 FILLER_0_19_51
*308 FILLER_0_19_55
*309 FILLER_0_19_67
*310 FILLER_0_19_79
*311 FILLER_0_19_91
*312 FILLER_0_1_10
*313 FILLER_0_1_100
*314 FILLER_0_1_18
*315 FILLER_0_1_31
*316 FILLER_0_1_42
*317 FILLER_0_1_49
*318 FILLER_0_1_55
*319 FILLER_0_1_57
*320 FILLER_0_1_71
*321 FILLER_0_1_75
*322 FILLER_0_1_80
*323 FILLER_0_1_92
*324 FILLER_0_20_29
*325 FILLER_0_20_41
*326 FILLER_0_20_53
*327 FILLER_0_20_57
*328 FILLER_0_20_69
*329 FILLER_0_20_81
*330 FILLER_0_20_85
*331 FILLER_0_20_97
*332 FILLER_0_2_17
*333 FILLER_0_2_25
*334 FILLER_0_2_29
*335 FILLER_0_2_38
*336 FILLER_0_2_7
*337 FILLER_0_2_81
*338 FILLER_0_2_91
*339 FILLER_0_3_26
*340 FILLER_0_3_31
*341 FILLER_0_3_51
*342 FILLER_0_3_55
*343 FILLER_0_3_57
*344 FILLER_0_3_6
*345 FILLER_0_3_65
*346 FILLER_0_3_69
*347 FILLER_0_3_79
*348 FILLER_0_3_91
*349 FILLER_0_4_18
*350 FILLER_0_4_24
*351 FILLER_0_4_34
*352 FILLER_0_4_48
*353 FILLER_0_4_6
*354 FILLER_0_4_60
*355 FILLER_0_4_72
*356 FILLER_0_4_85
*357 FILLER_0_4_97
*358 FILLER_0_5_24
*359 FILLER_0_5_3
*360 FILLER_0_5_46
*361 FILLER_0_5_55
*362 FILLER_0_5_61
*363 FILLER_0_5_73
*364 FILLER_0_5_85
*365 FILLER_0_5_93
*366 FILLER_0_6_15
*367 FILLER_0_6_27
*368 FILLER_0_6_29
*369 FILLER_0_6_41
*370 FILLER_0_6_49
*371 FILLER_0_6_54
*372 FILLER_0_6_66
*373 FILLER_0_6_7
*374 FILLER_0_6_77
*375 FILLER_0_6_97
*376 FILLER_0_7_102
*377 FILLER_0_7_15
*378 FILLER_0_7_3
*379 FILLER_0_7_31
*380 FILLER_0_7_43
*381 FILLER_0_7_55
*382 FILLER_0_7_61
*383 FILLER_0_7_98
*384 FILLER_0_8_25
*385 FILLER_0_8_29
*386 FILLER_0_8_57
*387 FILLER_0_8_65
*388 FILLER_0_8_70
*389 FILLER_0_8_78
*390 FILLER_0_8_88
*391 FILLER_0_8_99
*392 FILLER_0_9_20
*393 FILLER_0_9_28
*394 FILLER_0_9_46
*395 FILLER_0_9_54
*396 FILLER_0_9_57
*397 FILLER_0_9_6
*398 FILLER_0_9_69
*399 FILLER_0_9_81
*400 FILLER_0_9_93
*401 PHY_EDGE_ROW_0_Left_21
*402 PHY_EDGE_ROW_0_Right_0
*403 PHY_EDGE_ROW_10_Left_31
*404 PHY_EDGE_ROW_10_Right_10
*405 PHY_EDGE_ROW_11_Left_32
*406 PHY_EDGE_ROW_11_Right_11
*407 PHY_EDGE_ROW_12_Left_33
*408 PHY_EDGE_ROW_12_Right_12
*409 PHY_EDGE_ROW_13_Left_34
*410 PHY_EDGE_ROW_13_Right_13
*411 PHY_EDGE_ROW_14_Left_35
*412 PHY_EDGE_ROW_14_Right_14
*413 PHY_EDGE_ROW_15_Left_36
*414 PHY_EDGE_ROW_15_Right_15
*415 PHY_EDGE_ROW_16_Left_37
*416 PHY_EDGE_ROW_16_Right_16
*417 PHY_EDGE_ROW_17_Left_38
*418 PHY_EDGE_ROW_17_Right_17
*419 PHY_EDGE_ROW_18_Left_39
*420 PHY_EDGE_ROW_18_Right_18
*421 PHY_EDGE_ROW_19_Left_40
*422 PHY_EDGE_ROW_19_Right_19
*423 PHY_EDGE_ROW_1_Left_22
*424 PHY_EDGE_ROW_1_Right_1
*425 PHY_EDGE_ROW_20_Left_41
*426 PHY_EDGE_ROW_20_Right_20
*427 PHY_EDGE_ROW_2_Left_23
*428 PHY_EDGE_ROW_2_Right_2
*429 PHY_EDGE_ROW_3_Left_24
*430 PHY_EDGE_ROW_3_Right_3
*431 PHY_EDGE_ROW_4_Left_25
*432 PHY_EDGE_ROW_4_Right_4
*433 PHY_EDGE_ROW_5_Left_26
*434 PHY_EDGE_ROW_5_Right_5
*435 PHY_EDGE_ROW_6_Left_27
*436 PHY_EDGE_ROW_6_Right_6
*437 PHY_EDGE_ROW_7_Left_28
*438 PHY_EDGE_ROW_7_Right_7
*439 PHY_EDGE_ROW_8_Left_29
*440 PHY_EDGE_ROW_8_Right_8
*441 PHY_EDGE_ROW_9_Left_30
*442 PHY_EDGE_ROW_9_Right_9
*443 TAP_TAPCELL_ROW_0_42
*444 TAP_TAPCELL_ROW_0_43
*445 TAP_TAPCELL_ROW_0_44
*446 TAP_TAPCELL_ROW_10_58
*447 TAP_TAPCELL_ROW_10_59
*448 TAP_TAPCELL_ROW_11_60
*449 TAP_TAPCELL_ROW_12_61
*450 TAP_TAPCELL_ROW_12_62
*451 TAP_TAPCELL_ROW_13_63
*452 TAP_TAPCELL_ROW_14_64
*453 TAP_TAPCELL_ROW_14_65
*454 TAP_TAPCELL_ROW_15_66
*455 TAP_TAPCELL_ROW_16_67
*456 TAP_TAPCELL_ROW_16_68
*457 TAP_TAPCELL_ROW_17_69
*458 TAP_TAPCELL_ROW_18_70
*459 TAP_TAPCELL_ROW_18_71
*460 TAP_TAPCELL_ROW_19_72
*461 TAP_TAPCELL_ROW_1_45
*462 TAP_TAPCELL_ROW_20_73
*463 TAP_TAPCELL_ROW_20_74
*464 TAP_TAPCELL_ROW_20_75
*465 TAP_TAPCELL_ROW_2_46
*466 TAP_TAPCELL_ROW_2_47
*467 TAP_TAPCELL_ROW_3_48
*468 TAP_TAPCELL_ROW_4_49
*469 TAP_TAPCELL_ROW_4_50
*470 TAP_TAPCELL_ROW_5_51
*471 TAP_TAPCELL_ROW_6_52
*472 TAP_TAPCELL_ROW_6_53
*473 TAP_TAPCELL_ROW_7_54
*474 TAP_TAPCELL_ROW_8_55
*475 TAP_TAPCELL_ROW_8_56
*476 TAP_TAPCELL_ROW_9_57
*477 _161_
*478 _162_
*479 _163_
*480 _164_
*481 _165_
*482 _166_
*483 _167_
*484 _168_
*485 _169_
*486 _170_
*487 _171_
*488 _172_
*489 _173_
*490 _174_
*491 _175_
*492 _176_
*493 _177_
*494 _178_
*495 _179_
*496 _180_
*497 _181_
*498 _182_
*499 _183_
*500 _184_
*501 _185_
*502 _186_
*503 _187_
*504 _188_
*505 _189_
*506 _190_
*507 _191_
*508 _192_
*509 _193_
*510 _194_
*511 _195_
*512 _196_
*513 _197_
*514 _198_
*515 _199_
*516 _200_
*517 _201_
*518 _202_
*519 _203_
*520 _204_
*521 _205_
*522 _206_
*523 _207_
*524 _208_
*525 _209_
*526 _210_
*527 _211_
*528 _212_
*529 _213_
*530 _214_
*531 _215_
*532 _216_
*533 _217_
*534 _218_
*535 _219_
*536 _220_
*537 _221_
*538 _222_
*539 _223_
*540 _224_
*541 _225_
*542 _226_
*543 _227_
*544 _228_
*545 _229_
*546 _230_
*547 _231_
*548 _232_
*549 _233_
*550 _234_
*551 _235_
*552 _236_
*553 _237_
*554 _238_
*555 _239_
*556 _240_
*557 _241_
*558 _242_
*559 _243_
*560 _244_
*561 _245_
*562 _246_
*563 _247_
*564 _248_
*565 _249_
*566 _250_
*567 _251_
*568 _252_
*569 _253_
*570 _254_
*571 _255_
*572 _256_
*573 _257_
*574 _258_
*575 _259_
*576 _260_
*577 _261_
*578 _262_
*579 _263_
*580 _264_
*581 _265_
*582 _266_
*583 _267_
*584 _268_
*585 _269_
*586 _270_
*587 _271_
*588 _272_
*589 _273_
*590 _274_
*591 _275_
*592 _276_
*593 _277_
*594 _278_
*595 _279_
*596 _280_
*597 _281_
*598 _282_
*599 _283_
*600 _284_
*601 _285_
*602 _286_
*603 _287_
*604 _288_
*605 _289_
*606 _290_
*607 _291_
*608 _292_
*609 _293_
*610 _294_
*611 _295_
*612 _296_
*613 _297_
*614 _298_
*615 _299_
*616 _300_
*617 _301_
*618 _302_
*619 _303_
*620 _304_
*621 _305_
*622 _306_
*623 _307_
*624 _308_
*625 _309_
*626 _310_
*627 _311_
*628 _312_
*629 _313_
*630 _314_
*631 _315_
*632 _316_
*633 _317_
*634 _318_
*635 _319_
*636 _320_
*637 _321_
*638 _322_
*639 _323_
*640 _324_
*641 _325_
*642 _326_
*643 _327_
*644 _328_
*645 _329_
*646 input1
*647 input10
*648 input11
*649 input12
*650 input13
*651 input14
*652 input15
*653 input16
*654 input17
*655 input18
*656 input19
*657 input2
*658 input3
*659 input4
*660 input5
*661 input6
*662 input7
*663 input8
*664 input9
*665 output20
*666 output21
*667 output22
*668 output23
*669 output24
*670 output25
*671 output26
*672 output27

*PORTS
A[0] I
A[1] I
A[2] I
A[3] I
A[4] I
A[5] I
A[6] I
A[7] I
B[0] I
B[1] I
B[2] I
B[3] I
B[4] I
B[5] I
B[6] I
B[7] I
opcode[0] I
opcode[1] I
opcode[2] I
out[0] O
out[1] O
out[2] O
out[3] O
out[4] O
out[5] O
out[6] O
out[7] O

*D_NET *1 0.00073804
*CONN
*P A[0] I
*I *646:A I *D sky130_fd_sc_hd__buf_1
*CAP
1 A[0] 0.000366041
2 *646:A 0
3 *1:17 0.000366041
4 *1:17 *657:A 0
5 *1:17 *16:17 5.95675e-06
6 *1:17 *197:28 0
*RES
1 A[0] *1:17 28.2148 
2 *1:17 *646:A 23 
*END

*D_NET *2 0.000690707
*CONN
*P A[1] I
*I *657:A I *D sky130_fd_sc_hd__buf_2
*CAP
1 A[1] 0.00026775
2 *657:A 0.00026775
3 *657:A *534:A2 7.76035e-05
4 *657:A *658:A 0
5 *657:A *197:28 7.76035e-05
6 *1:17 *657:A 0
*RES
1 A[1] *657:A 47.7832 
*END

*D_NET *3 0.000623829
*CONN
*P A[2] I
*I *658:A I *D sky130_fd_sc_hd__buf_1
*CAP
1 A[2] 0.000305603
2 *658:A 0.000305603
3 *658:A *4:17 1.26232e-05
4 *657:A *658:A 0
*RES
1 A[2] *658:A 49.8062 
*END

*D_NET *4 0.000672454
*CONN
*P A[3] I
*I *659:A I *D sky130_fd_sc_hd__buf_1
*CAP
1 A[3] 0.000324319
2 *659:A 0
3 *4:17 0.000324319
4 *4:17 *5:17 5.01799e-06
5 *4:17 *197:34 0
6 *4:17 *197:56 6.17437e-06
7 *658:A *4:17 1.26232e-05
*RES
1 A[3] *4:17 27.1584 
2 *4:17 *659:A 23 
*END

*D_NET *5 0.00080804
*CONN
*P A[4] I
*I *660:A I *D sky130_fd_sc_hd__clkbuf_2
*CAP
1 A[4] 0.00036939
2 *660:A 0
3 *5:17 0.00036939
4 *5:17 *661:A 5.95675e-06
5 *5:17 *197:34 5.82853e-05
6 *5:17 *214:10 0
7 *4:17 *5:17 5.01799e-06
*RES
1 A[4] *5:17 28.3391 
2 *5:17 *660:A 23 
*END

*D_NET *6 0.00060347
*CONN
*P A[5] I
*I *661:A I *D sky130_fd_sc_hd__dlymetal6s2s_1
*CAP
1 A[5] 0.000298757
2 *661:A 0.000298757
3 *661:A *7:11 0
4 *5:17 *661:A 5.95675e-06
*RES
1 A[5] *661:A 49.8062 
*END

*D_NET *7 0.00133986
*CONN
*P A[6] I
*I *662:A I *D sky130_fd_sc_hd__clkbuf_2
*CAP
1 A[6] 0.000537664
2 *662:A 0
3 *7:11 0.000537664
4 *7:11 *8:11 0.000147407
5 *7:11 *214:10 0.000117121
6 *661:A *7:11 0
*RES
1 A[6] *7:11 32.2641 
2 *7:11 *662:A 23 
*END

*D_NET *8 0.00193141
*CONN
*P A[7] I
*I *663:A I *D sky130_fd_sc_hd__buf_1
*CAP
1 A[7] 0.000778256
2 *663:A 0
3 *8:11 0.000778256
4 *8:11 *52:8 0
5 *8:11 *214:10 0.000227497
6 *7:11 *8:11 0.000147407
*RES
1 A[7] *8:11 36.7474 
2 *8:11 *663:A 23 
*END

*D_NET *9 0.00215718
*CONN
*P B[0] I
*I *664:A I *D sky130_fd_sc_hd__clkbuf_2
*CAP
1 B[0] 0.000995931
2 *664:A 0
3 *9:15 0.000995931
4 *9:15 *566:B 9.83712e-06
5 *9:15 *656:A 0.000110432
6 *9:15 *10:11 0
7 *9:15 *170:10 4.50519e-05
8 *9:15 *200:59 0
9 *9:15 *201:8 0
*RES
1 B[0] *9:15 28.1604 
2 *9:15 *664:A 23 
*END

*D_NET *10 0.00182153
*CONN
*P B[1] I
*I *647:A I *D sky130_fd_sc_hd__buf_1
*CAP
1 B[1] 0.000603342
2 *647:A 0
3 *10:11 0.000603342
4 *10:11 *477:A 0.000137794
5 *10:11 *477:B 0.000249488
6 *10:11 *566:A 0
7 *10:11 *648:A 0
8 *10:11 *175:14 6.11286e-05
9 *10:11 *180:16 0
10 *10:11 *199:26 3.94629e-05
11 *10:11 *200:16 0.000126973
12 *9:15 *10:11 0
*RES
1 B[1] *10:11 31.3794 
2 *10:11 *647:A 23 
*END

*D_NET *11 0.00063486
*CONN
*P B[2] I
*I *648:A I *D sky130_fd_sc_hd__buf_1
*CAP
1 B[2] 0.000311118
2 *648:A 0.000311118
3 *648:A *12:17 1.26232e-05
4 *10:11 *648:A 0
*RES
1 B[2] *648:A 49.8062 
*END

*D_NET *12 0.000669912
*CONN
*P B[3] I
*I *649:A I *D sky130_fd_sc_hd__buf_1
*CAP
1 B[3] 0.000328644
2 *649:A 0
3 *12:17 0.000328644
4 *12:17 *650:A 0
5 *12:17 *175:14 0
6 *648:A *12:17 1.26232e-05
*RES
1 B[3] *12:17 27.1584 
2 *12:17 *649:A 23 
*END

*D_NET *13 0.000872037
*CONN
*P B[4] I
*I *650:A I *D sky130_fd_sc_hd__clkbuf_2
*CAP
1 B[4] 0.000321614
2 *650:A 0.000321614
3 *650:A *651:A 8.14539e-06
4 *650:A *175:14 0.000151407
5 *650:A *195:8 6.92572e-05
6 *12:17 *650:A 0
*RES
1 B[4] *650:A 48.9255 
*END

*D_NET *14 0.000605876
*CONN
*P B[5] I
*I *651:A I *D sky130_fd_sc_hd__dlymetal6s2s_1
*CAP
1 B[5] 0.000298865
2 *651:A 0.000298865
3 *651:A *652:A 0
4 *650:A *651:A 8.14539e-06
*RES
1 B[5] *651:A 49.8062 
*END

*D_NET *15 0.000788429
*CONN
*P B[6] I
*I *652:A I *D sky130_fd_sc_hd__dlymetal6s2s_1
*CAP
1 B[6] 0.000297367
2 *652:A 0.000297367
3 *652:A *16:17 1.05236e-05
4 *652:A *196:10 0.000183171
5 *651:A *652:A 0
*RES
1 B[6] *652:A 49.1918 
*END

*D_NET *16 0.00064742
*CONN
*P B[7] I
*I *653:A I *D sky130_fd_sc_hd__buf_1
*CAP
1 B[7] 0.000312383
2 *653:A 0
3 *16:17 0.000312383
4 *16:17 *197:28 6.17437e-06
5 *652:A *16:17 1.05236e-05
6 *1:17 *16:17 5.95675e-06
*RES
1 B[7] *16:17 27.1584 
2 *16:17 *653:A 23 
*END

*D_NET *19 0.00248285
*CONN
*P opcode[0] I
*I *654:A I *D sky130_fd_sc_hd__buf_1
*CAP
1 opcode[0] 0.00124143
2 *654:A 0
3 *19:11 0.00124143
4 *19:11 *656:A 0
5 *19:11 *20:11 0
*RES
1 opcode[0] *19:11 36.3519 
2 *19:11 *654:A 23 
*END

*D_NET *20 0.00102464
*CONN
*P opcode[1] I
*I *655:A I *D sky130_fd_sc_hd__dlymetal6s2s_1
*CAP
1 opcode[1] 0.000512321
2 *655:A 0
3 *20:11 0.000512321
4 *20:11 *656:A 0
5 *19:11 *20:11 0
*RES
1 opcode[1] *20:11 29.7132 
2 *20:11 *655:A 23 
*END

*D_NET *21 0.00219653
*CONN
*P opcode[2] I
*I *656:A I *D sky130_fd_sc_hd__buf_2
*CAP
1 opcode[2] 0.00104305
2 *656:A 0.00104305
3 *9:15 *656:A 0.000110432
4 *19:11 *656:A 0
5 *20:11 *656:A 0
*RES
1 opcode[2] *656:A 49.3425 
*END

*D_NET *22 0.000979338
*CONN
*P out[0] O
*I *665:X O *D sky130_fd_sc_hd__buf_2
*CAP
1 out[0] 0.000231796
2 *665:X 0.000257873
3 *22:8 0.000489669
*RES
1 *665:X *22:8 43.2511 
2 *22:8 out[0] 8.84373 
*END

*D_NET *23 0.000585118
*CONN
*P out[1] O
*I *666:X O *D sky130_fd_sc_hd__buf_2
*CAP
1 out[1] 0.000286713
2 *666:X 0.000286713
3 out[1] *204:18 1.16924e-05
*RES
1 *666:X out[1] 47.1648 
*END

*D_NET *24 0.000622953
*CONN
*P out[2] O
*I *667:X O *D sky130_fd_sc_hd__buf_2
*CAP
1 out[2] 0.000286999
2 *667:X 0.000286999
3 out[2] *156:25 4.89546e-05
4 out[2] *205:10 0
*RES
1 *667:X out[2] 47.5169 
*END

*D_NET *25 0.00074757
*CONN
*P out[3] O
*I *668:X O *D sky130_fd_sc_hd__buf_2
*CAP
1 out[3] 0.000373785
2 *668:X 0.000373785
3 out[3] *159:10 0
*RES
1 *668:X out[3] 49.9669 
*END

*D_NET *26 0.000704497
*CONN
*P out[4] O
*I *669:X O *D sky130_fd_sc_hd__buf_2
*CAP
1 out[4] 0.000333406
2 *669:X 0.000333406
3 out[4] *207:10 3.76854e-05
*RES
1 *669:X out[4] 48.5734 
*END

*D_NET *27 0.000576596
*CONN
*P out[5] O
*I *670:X O *D sky130_fd_sc_hd__buf_2
*CAP
1 out[5] 0.000288298
2 *670:X 0.000288298
*RES
1 *670:X out[5] 47.1648 
*END

*D_NET *28 0.000750685
*CONN
*P out[6] O
*I *671:X O *D sky130_fd_sc_hd__buf_2
*CAP
1 out[6] 0.000375342
2 *671:X 0.000375342
*RES
1 *671:X out[6] 49.1089 
*END

*D_NET *29 0.0021861
*CONN
*P out[7] O
*I *672:X O *D sky130_fd_sc_hd__buf_2
*CAP
1 out[7] 0.00043317
2 *672:X 0.000659882
3 *29:10 0.00109305
*RES
1 *672:X *29:10 48.3882 
2 *29:10 out[7] 9.61653 
*END

*D_NET *30 0.00311975
*CONN
*I *630:A1 I *D sky130_fd_sc_hd__a31o_1
*I *564:A1 I *D sky130_fd_sc_hd__a311o_2
*I *629:A1 I *D sky130_fd_sc_hd__a21oi_1
*I *638:A1 I *D sky130_fd_sc_hd__a31o_1
*I *549:X O *D sky130_fd_sc_hd__or2b_1
*CAP
1 *630:A1 6.44773e-05
2 *564:A1 0
3 *629:A1 0.0001683
4 *638:A1 0
5 *549:X 0.000243034
6 *30:25 0.000267827
7 *30:21 0.000298761
8 *30:12 0.000134757
9 *30:10 0.000243034
10 *629:A1 *564:A2 1.05441e-05
11 *629:A1 *629:B1 3.26241e-05
12 *629:A1 *639:A 0.000162537
13 *629:A1 *48:38 0.000217939
14 *629:A1 *113:10 4.41821e-06
15 *629:A1 *120:26 2.85501e-06
16 *630:A1 *38:32 2.68258e-05
17 *630:A1 *48:55 5.56356e-05
18 *30:10 *564:B1 1.14452e-05
19 *30:10 *38:10 0.000100533
20 *30:10 *42:14 0.000127272
21 *30:10 *120:26 0.000350687
22 *30:10 *211:16 5.50106e-05
23 *30:21 *638:A2 4.9662e-05
24 *30:21 *38:32 1.21972e-05
25 *30:25 *564:A2 0.000176903
26 *30:25 *38:10 6.25829e-05
27 *30:25 *48:38 0.000214745
28 *30:25 *48:55 2.51382e-05
*RES
1 *549:X *30:10 43.3443 
2 *30:10 *30:12 15 
3 *30:12 *638:A1 23 
4 *30:12 *30:21 2.07143 
5 *30:21 *30:25 18.3143 
6 *30:25 *629:A1 42.5157 
7 *30:25 *564:A1 38 
8 *30:21 *630:A1 24.595 
*END

*D_NET *31 0.0010529
*CONN
*I *554:B I *D sky130_fd_sc_hd__nor3_1
*I *552:A1 I *D sky130_fd_sc_hd__o21a_1
*I *550:X O *D sky130_fd_sc_hd__and3_1
*CAP
1 *554:B 0
2 *552:A1 3.73824e-05
3 *550:X 4.74353e-05
4 *31:21 0.000306814
5 *31:6 0.000391632
6 *31:6 *478:B 6.17437e-06
7 *31:6 *120:8 1.47795e-05
8 *31:21 *120:8 9.03378e-05
9 *31:21 *144:14 0.000131386
10 *31:21 *202:122 2.69577e-05
*RES
1 *550:X *31:6 23.6214 
2 *31:6 *552:A1 23.8493 
3 *31:6 *31:21 34.9093 
4 *31:21 *554:B 23 
*END

*D_NET *32 0.00127149
*CONN
*I *554:C I *D sky130_fd_sc_hd__nor3_1
*I *552:A2 I *D sky130_fd_sc_hd__o21a_1
*I *551:Y O *D sky130_fd_sc_hd__a21oi_1
*CAP
1 *554:C 0.000261642
2 *552:A2 0
3 *551:Y 0.000116927
4 *32:10 0.000378568
5 *554:C *481:B 7.63601e-05
6 *554:C *33:8 0
7 *554:C *119:25 3.20863e-05
8 *554:C *123:12 2.33476e-05
9 *554:C *144:22 0
10 *554:C *202:122 0.00017862
11 *554:C *217:16 0.000147656
12 *32:10 *33:8 0
13 *32:10 *119:25 3.98887e-05
14 *32:10 *127:53 1.39431e-05
15 *32:10 *127:65 2.45549e-06
*RES
1 *551:Y *32:10 39.8229 
2 *32:10 *552:A2 38 
3 *32:10 *554:C 43.7171 
*END

*D_NET *33 0.00281805
*CONN
*I *555:B1 I *D sky130_fd_sc_hd__a211oi_1
*I *615:A1 I *D sky130_fd_sc_hd__o211a_1
*I *621:B I *D sky130_fd_sc_hd__or3_1
*I *557:A1 I *D sky130_fd_sc_hd__o21ai_2
*I *552:X O *D sky130_fd_sc_hd__o21a_1
*CAP
1 *555:B1 4.89372e-05
2 *615:A1 1.82709e-05
3 *621:B 0.000139626
4 *557:A1 2.0995e-05
5 *552:X 8.07502e-05
6 *33:36 0.000167464
7 *33:23 0.000336174
8 *33:12 0.000166491
9 *33:8 0.000129954
10 *555:B1 *555:A2 4.21048e-05
11 *555:B1 *555:C1 0.000176999
12 *555:B1 *34:25 2.19403e-05
13 *555:B1 *36:38 2.1819e-05
14 *555:B1 *144:44 0.000147236
15 *557:A1 *557:A2 1.14154e-05
16 *615:A1 *555:C1 5.5792e-05
17 *615:A1 *34:25 2.95423e-05
18 *621:B *557:B1 1.13589e-05
19 *621:B *621:C 0.000218377
20 *621:B *625:A2 0
21 *621:B *36:10 3.47781e-05
22 *621:B *37:8 3.31127e-05
23 *621:B *38:10 6.91722e-05
24 *621:B *47:24 1.01436e-05
25 *621:B *92:8 1.37246e-05
26 *621:B *100:10 6.7177e-06
27 *621:B *120:26 0.000102939
28 *33:8 *144:22 0.000110922
29 *33:12 *34:10 9.41704e-05
30 *33:12 *217:109 2.19998e-05
31 *33:23 *557:A2 9.67842e-05
32 *33:23 *557:B1 2.02872e-05
33 *33:23 *34:10 9.5877e-05
34 *33:23 *217:109 5.61255e-06
35 *33:36 *35:10 5.75756e-06
36 *33:36 *36:10 0.000126264
37 *33:36 *47:24 0.000111852
38 *33:36 *141:22 0
39 *33:36 *217:22 1.26897e-05
40 *554:C *33:8 0
41 *32:10 *33:8 0
*RES
1 *552:X *33:8 39.5536 
2 *33:8 *33:12 16.0979 
3 *33:12 *557:A1 23.4971 
4 *33:12 *33:23 17.0507 
5 *33:23 *621:B 42.3707 
6 *33:23 *33:36 17.61 
7 *33:36 *615:A1 23.6214 
8 *33:36 *555:B1 25.5271 
*END

*D_NET *34 0.00380195
*CONN
*I *555:A1 I *D sky130_fd_sc_hd__a211oi_1
*I *609:A1 I *D sky130_fd_sc_hd__a21o_1
*I *615:B1 I *D sky130_fd_sc_hd__o211a_1
*I *553:Y O *D sky130_fd_sc_hd__inv_2
*CAP
1 *555:A1 0
2 *609:A1 0
3 *615:B1 0
4 *553:Y 0.000328836
5 *34:33 0.000418726
6 *34:25 0.000829508
7 *34:16 0.000460321
8 *34:10 0.000378375
9 *34:10 *36:10 0.000108602
10 *34:10 *127:53 2.45549e-06
11 *34:10 *217:22 0.000108602
12 *34:10 *217:109 1.3109e-05
13 *34:16 *555:C1 5.11107e-05
14 *34:16 *47:24 6.45837e-05
15 *34:25 *555:A2 0.000135037
16 *34:25 *555:C1 2.74181e-05
17 *34:25 *144:44 0.000138607
18 *34:33 *606:B1 0.000158463
19 *34:33 *609:A2 5.79559e-05
20 *34:33 *609:B1 1.34995e-05
21 *34:33 *84:10 0.000159359
22 *34:33 *86:10 8.0554e-05
23 *34:33 *144:52 6.22448e-06
24 *34:33 *171:6 1.90678e-05
25 *555:B1 *34:25 2.19403e-05
26 *615:A1 *34:25 2.95423e-05
27 *33:12 *34:10 9.41704e-05
28 *33:23 *34:10 9.5877e-05
*RES
1 *553:Y *34:10 43.0336 
2 *34:10 *34:16 16.4707 
3 *34:16 *615:B1 23 
4 *34:16 *34:25 5.75857 
5 *34:25 *34:33 37.83 
6 *34:33 *609:A1 23 
7 *34:25 *555:A1 23 
*END

*D_NET *35 0.00154936
*CONN
*I *615:A2 I *D sky130_fd_sc_hd__o211a_1
*I *555:C1 I *D sky130_fd_sc_hd__a211oi_1
*I *554:Y O *D sky130_fd_sc_hd__nor3_1
*CAP
1 *615:A2 0
2 *555:C1 7.88549e-05
3 *554:Y 0.000236597
4 *35:12 7.88549e-05
5 *35:10 0.000236597
6 *555:C1 *36:10 0.00018587
7 *555:C1 *36:38 5.79559e-05
8 *555:C1 *47:24 1.41129e-05
9 *35:10 *144:44 2.71504e-05
10 *35:10 *202:114 4.08664e-05
11 *35:10 *202:122 0.000137525
12 *35:10 *217:22 0.000137898
13 *555:B1 *555:C1 0.000176999
14 *615:A1 *555:C1 5.5792e-05
15 *33:36 *35:10 5.75756e-06
16 *34:16 *555:C1 5.11107e-05
17 *34:25 *555:C1 2.74181e-05
*RES
1 *554:Y *35:10 41.9564 
2 *35:10 *35:12 15 
3 *35:12 *555:C1 26.5007 
4 *35:12 *615:A2 23 
*END

*D_NET *36 0.00283776
*CONN
*I *616:A I *D sky130_fd_sc_hd__or3_1
*I *557:A2 I *D sky130_fd_sc_hd__o21ai_2
*I *621:C I *D sky130_fd_sc_hd__or3_1
*I *555:Y O *D sky130_fd_sc_hd__a211oi_1
*CAP
1 *616:A 0
2 *557:A2 6.4508e-05
3 *621:C 7.72624e-05
4 *555:Y 0
5 *36:38 0.000252636
6 *36:10 0.000311132
7 *36:4 0.000421997
8 *557:A2 *557:B1 5.3304e-05
9 *557:A2 *625:A1 0
10 *557:A2 *217:109 3.7122e-06
11 *621:C *557:B1 0.000193743
12 *621:C *217:22 1.22803e-05
13 *36:10 *47:24 9.41704e-05
14 *36:10 *217:22 1.78655e-05
15 *36:38 *555:A2 2.44078e-05
16 *36:38 *606:B1 6.01675e-06
17 *36:38 *141:10 0.000131538
18 *36:38 *141:22 0.000181845
19 *36:38 *141:42 5.3304e-05
20 *36:38 *173:22 7.61733e-05
21 *555:B1 *36:38 2.1819e-05
22 *555:C1 *36:10 0.00018587
23 *555:C1 *36:38 5.79559e-05
24 *557:A1 *557:A2 1.14154e-05
25 *621:B *621:C 0.000218377
26 *621:B *36:10 3.47781e-05
27 *33:23 *557:A2 9.67842e-05
28 *33:36 *36:10 0.000126264
29 *34:10 *36:10 0.000108602
*RES
1 *555:Y *36:4 23 
2 *36:4 *36:10 19.3086 
3 *36:10 *621:C 40.9621 
4 *36:10 *557:A2 39.595 
5 *36:4 *36:38 35.7379 
6 *36:38 *616:A 23 
*END

*D_NET *37 0.0018158
*CONN
*I *557:B1 I *D sky130_fd_sc_hd__o21ai_2
*I *621:A I *D sky130_fd_sc_hd__or3_1
*I *556:Y O *D sky130_fd_sc_hd__xnor2_1
*CAP
1 *557:B1 0.000161719
2 *621:A 7.27151e-05
3 *556:Y 0.000166106
4 *37:8 0.00040054
5 *557:B1 *38:6 5.50106e-05
6 *557:B1 *47:32 7.53384e-06
7 *557:B1 *217:22 6.48142e-05
8 *557:B1 *217:24 0.000153849
9 *37:8 *120:26 7.54381e-05
10 *37:8 *217:24 0.000346266
11 *557:A2 *557:B1 5.3304e-05
12 *621:B *557:B1 1.13589e-05
13 *621:B *37:8 3.31127e-05
14 *621:C *557:B1 0.000193743
15 *33:23 *557:B1 2.02872e-05
*RES
1 *556:Y *37:8 42.7229 
2 *37:8 *621:A 39.0979 
3 *37:8 *557:B1 42.5364 
*END

*D_NET *38 0.00516583
*CONN
*I *625:A1 I *D sky130_fd_sc_hd__a31o_1
*I *629:A2 I *D sky130_fd_sc_hd__a21oi_1
*I *630:A2 I *D sky130_fd_sc_hd__a31o_1
*I *638:A2 I *D sky130_fd_sc_hd__a31o_1
*I *564:A2 I *D sky130_fd_sc_hd__a311o_2
*I *557:Y O *D sky130_fd_sc_hd__o21ai_2
*CAP
1 *625:A1 8.77066e-05
2 *629:A2 0
3 *630:A2 1.01624e-05
4 *638:A2 9.4946e-05
5 *564:A2 0.000126009
6 *557:Y 6.3318e-05
7 *38:51 0.000204685
8 *38:32 0.000370478
9 *38:21 0.000250577
10 *38:10 0.000891513
11 *38:6 0.000916529
12 *564:A2 *564:B1 0.000141879
13 *564:A2 *120:26 1.27035e-05
14 *625:A1 *616:C 4.96303e-05
15 *630:A2 *634:A2 3.23857e-06
16 *38:6 *616:C 6.17437e-06
17 *38:6 *47:32 1.03836e-05
18 *38:10 *564:B1 2.68751e-05
19 *38:10 *41:46 5.94125e-05
20 *38:10 *42:14 0.000138718
21 *38:10 *47:51 0
22 *38:10 *48:55 1.37349e-05
23 *38:10 *97:10 0
24 *38:10 *100:10 0.000114083
25 *38:10 *103:8 0
26 *38:10 *120:26 0.000690919
27 *38:32 *48:55 1.08287e-05
28 *38:51 *629:B1 0.000114083
29 *38:51 *44:16 1.47865e-05
30 *38:51 *48:38 2.82419e-06
31 *38:51 *48:55 2.03974e-05
32 *38:51 *171:50 0.000155804
33 *557:A2 *625:A1 0
34 *557:B1 *38:6 5.50106e-05
35 *621:B *38:10 6.91722e-05
36 *629:A1 *564:A2 1.05441e-05
37 *630:A1 *38:32 2.68258e-05
38 *30:10 *38:10 0.000100533
39 *30:21 *638:A2 4.9662e-05
40 *30:21 *38:32 1.21972e-05
41 *30:25 *564:A2 0.000176903
42 *30:25 *38:10 6.25829e-05
*RES
1 *557:Y *38:6 24.0979 
2 *38:6 *38:10 31.6957 
3 *38:10 *564:A2 40.61 
4 *38:10 *38:21 15 
5 *38:21 *638:A2 24.5743 
6 *38:21 *38:32 2.54786 
7 *38:32 *630:A2 23.4971 
8 *38:32 *38:51 34.1221 
9 *38:51 *629:A2 23 
10 *38:6 *625:A1 24.595 
*END

*D_NET *39 0.000987381
*CONN
*I *559:B I *D sky130_fd_sc_hd__xnor2_1
*I *558:X O *D sky130_fd_sc_hd__o31a_1
*CAP
1 *559:B 0
2 *558:X 0.000201245
3 *39:10 0.000201245
4 *39:10 *127:14 0.000188934
5 *39:10 *127:21 0.000100061
6 *39:10 *192:12 3.42479e-05
7 *39:10 *192:23 6.12127e-05
8 *39:10 *194:10 0.000161414
9 *39:10 *194:16 3.90213e-05
*RES
1 *558:X *39:10 43.6136 
2 *39:10 *559:B 38 
*END

*D_NET *40 0.00345912
*CONN
*I *561:B I *D sky130_fd_sc_hd__nor2_1
*I *560:B I *D sky130_fd_sc_hd__nand2_1
*I *559:Y O *D sky130_fd_sc_hd__xnor2_1
*CAP
1 *561:B 0.00028792
2 *560:B 0
3 *559:Y 0.000587725
4 *40:18 0.00062811
5 *40:14 0.000927915
6 *561:B *560:A 0.000154137
7 *561:B *41:10 5.61255e-06
8 *561:B *41:46 6.69336e-05
9 *40:14 *539:A1 0.000137185
10 *40:14 *539:A3 8.29264e-05
11 *40:14 *547:A1 6.57815e-06
12 *40:14 *548:A 7.34027e-05
13 *40:14 *180:22 0
14 *40:14 *189:8 0.000145284
15 *40:14 *190:8 9.64943e-05
16 *40:14 *191:16 0.000242986
17 *40:18 *41:10 1.59094e-05
*RES
1 *559:Y *40:14 48.3986 
2 *40:14 *40:18 20.3857 
3 *40:18 *560:B 23 
4 *40:18 *561:B 28.4271 
*END

*D_NET *41 0.0021688
*CONN
*I *628:B_N I *D sky130_fd_sc_hd__or2b_1
*I *638:A3 I *D sky130_fd_sc_hd__a31o_1
*I *564:A3 I *D sky130_fd_sc_hd__a311o_2
*I *560:Y O *D sky130_fd_sc_hd__nand2_1
*CAP
1 *628:B_N 0
2 *638:A3 0
3 *564:A3 0.000133401
4 *560:Y 0
5 *41:46 0.000167152
6 *41:10 0.000277645
7 *41:4 0.000311396
8 *564:A3 *564:B1 1.35999e-05
9 *564:A3 *639:A 0.000140021
10 *564:A3 *120:26 0.000193742
11 *564:A3 *124:14 0.000195974
12 *41:10 *120:26 0.000169665
13 *41:10 *124:14 0.00016046
14 *41:46 *560:A 0.000161702
15 *41:46 *42:8 0
16 *41:46 *42:14 9.61729e-05
17 *561:B *41:10 5.61255e-06
18 *561:B *41:46 6.69336e-05
19 *38:10 *41:46 5.94125e-05
20 *40:18 *41:10 1.59094e-05
*RES
1 *560:Y *41:4 23 
2 *41:4 *41:10 18.3557 
3 *41:10 *564:A3 42.1843 
4 *41:10 *638:A3 38 
5 *41:4 *41:46 33.9979 
6 *41:46 *628:B_N 23 
*END

*D_NET *42 0.00190578
*CONN
*I *628:A I *D sky130_fd_sc_hd__or2b_1
*I *638:B1 I *D sky130_fd_sc_hd__a31o_1
*I *564:B1 I *D sky130_fd_sc_hd__a311o_2
*I *561:Y O *D sky130_fd_sc_hd__nor2_1
*CAP
1 *628:A 0
2 *638:B1 0
3 *564:B1 0.000209489
4 *561:Y 9.80832e-05
5 *42:14 0.000408379
6 *42:8 0.000296973
7 *564:B1 *629:B1 2.93104e-06
8 *564:B1 *639:A 7.23496e-05
9 *564:B1 *120:26 7.80354e-05
10 *42:8 *560:A 0.000143535
11 *42:14 *560:A 4.00382e-05
12 *564:A2 *564:B1 0.000141879
13 *564:A3 *564:B1 1.35999e-05
14 *30:10 *564:B1 1.14452e-05
15 *30:10 *42:14 0.000127272
16 *38:10 *564:B1 2.68751e-05
17 *38:10 *42:14 0.000138718
18 *41:46 *42:8 0
19 *41:46 *42:14 9.61729e-05
*RES
1 *561:Y *42:8 25.0714 
2 *42:8 *42:14 18.9564 
3 *42:14 *564:B1 42.8264 
4 *42:14 *638:B1 38 
5 *42:8 *628:A 23 
*END

*D_NET *43 0.00170606
*CONN
*I *563:B I *D sky130_fd_sc_hd__nand2_1
*I *562:X O *D sky130_fd_sc_hd__or2_1
*CAP
1 *563:B 0
2 *562:X 0.000478644
3 *43:10 0.000478644
4 *43:10 *546:B 5.82853e-05
5 *43:10 *44:16 6.28499e-05
6 *43:10 *73:20 0.00013449
7 *43:10 *188:6 0.000182213
8 *43:10 *188:68 0.000299704
9 *43:10 *213:25 1.12268e-05
*RES
1 *562:X *43:10 45.7679 
2 *43:10 *563:B 38 
*END

*D_NET *44 0.00199797
*CONN
*I *564:C1 I *D sky130_fd_sc_hd__a311o_2
*I *639:A I *D sky130_fd_sc_hd__nand2_1
*I *563:Y O *D sky130_fd_sc_hd__nand2_1
*CAP
1 *564:C1 0
2 *639:A 0.000209633
3 *563:Y 0.000347992
4 *44:18 0.000209633
5 *44:16 0.000347992
6 *639:A *113:10 0.000183544
7 *44:16 *48:38 0.000152392
8 *44:16 *73:20 1.72393e-05
9 *44:16 *113:10 0
10 *44:16 *171:50 1.41481e-05
11 *44:16 *188:68 6.28499e-05
12 *564:A3 *639:A 0.000140021
13 *564:B1 *639:A 7.23496e-05
14 *629:A1 *639:A 0.000162537
15 *38:51 *44:16 1.47865e-05
16 *43:10 *44:16 6.28499e-05
*RES
1 *563:Y *44:16 44.0279 
2 *44:16 *44:18 15 
3 *44:18 *639:A 28.4271 
4 *44:18 *564:C1 23 
*END

*D_NET *45 0.00444199
*CONN
*I *643:A1 I *D sky130_fd_sc_hd__a31o_1
*I *565:C I *D sky130_fd_sc_hd__and3_1
*I *577:A3 I *D sky130_fd_sc_hd__a31o_1
*I *576:A3 I *D sky130_fd_sc_hd__a311oi_2