*SPEF "ieee 1481-1999"
*DESIGN "twos_complement"
*DATE "12:48:54 Sunday April 27, 2025"
*VENDOR "The OpenROAD Project"
*PROGRAM "OpenROAD"
*VERSION "b16bda7e82721d10566ff7e2b68f1ff0be9f9e38"
*DESIGN_FLOW "NAME_SCOPE LOCAL" "PIN_CAP NONE"
*DIVIDER /
*DELIMITER :
*BUS_DELIMITER []
*T_UNIT 1 NS
*C_UNIT 1 PF
*R_UNIT 1 OHM
*L_UNIT 1 HENRY

*NAME_MAP
*3 a[0]
*4 a[1]
*5 a[2]
*6 a[3]
*7 out[0]
*8 out[1]
*9 out[2]
*10 out[3]
*11 _0_
*12 _1_
*13 _2_
*14 net1
*15 net2
*16 net3
*17 net4
*18 net5
*19 net6
*20 net7
*21 net8
*22 FILLER_0_0_18
*23 FILLER_0_0_26
*24 FILLER_0_0_29
*25 FILLER_0_0_41
*26 FILLER_0_0_6
*27 FILLER_0_10_15
*28 FILLER_0_10_27
*29 FILLER_0_10_29
*30 FILLER_0_10_3
*31 FILLER_0_10_37
*32 FILLER_0_10_45
*33 FILLER_0_11_15
*34 FILLER_0_11_27
*35 FILLER_0_11_3
*36 FILLER_0_11_39
*37 FILLER_0_11_47
*38 FILLER_0_12_18
*39 FILLER_0_12_26
*40 FILLER_0_12_29
*41 FILLER_0_12_41
*42 FILLER_0_12_6
*43 FILLER_0_1_15
*44 FILLER_0_1_27
*45 FILLER_0_1_3
*46 FILLER_0_1_39
*47 FILLER_0_1_47
*48 FILLER_0_2_15
*49 FILLER_0_2_27
*50 FILLER_0_2_29
*51 FILLER_0_2_3
*52 FILLER_0_2_41
*53 FILLER_0_2_47
*54 FILLER_0_3_15
*55 FILLER_0_3_27
*56 FILLER_0_3_3
*57 FILLER_0_3_39
*58 FILLER_0_3_47
*59 FILLER_0_4_14
*60 FILLER_0_4_20
*61 FILLER_0_4_29
*62 FILLER_0_4_41
*63 FILLER_0_4_6
*64 FILLER_0_5_15
*65 FILLER_0_5_19
*66 FILLER_0_5_3
*67 FILLER_0_5_31
*68 FILLER_0_5_43
*69 FILLER_0_5_47
*70 FILLER_0_5_9
*71 FILLER_0_6_15
*72 FILLER_0_6_27
*73 FILLER_0_6_3
*74 FILLER_0_6_33
*75 FILLER_0_6_45
*76 FILLER_0_7_15
*77 FILLER_0_7_19
*78 FILLER_0_7_25
*79 FILLER_0_7_3
*80 FILLER_0_7_44
*81 FILLER_0_8_15
*82 FILLER_0_8_27
*83 FILLER_0_8_29
*84 FILLER_0_8_3
*85 FILLER_0_8_41
*86 FILLER_0_8_47
*87 FILLER_0_9_18
*88 FILLER_0_9_30
*89 FILLER_0_9_42
*90 FILLER_0_9_6
*91 PHY_EDGE_ROW_0_Left_13
*92 PHY_EDGE_ROW_0_Right_0
*93 PHY_EDGE_ROW_10_Left_23
*94 PHY_EDGE_ROW_10_Right_10
*95 PHY_EDGE_ROW_11_Left_24
*96 PHY_EDGE_ROW_11_Right_11
*97 PHY_EDGE_ROW_12_Left_25
*98 PHY_EDGE_ROW_12_Right_12
*99 PHY_EDGE_ROW_1_Left_14
*100 PHY_EDGE_ROW_1_Right_1
*101 PHY_EDGE_ROW_2_Left_15
*102 PHY_EDGE_ROW_2_Right_2
*103 PHY_EDGE_ROW_3_Left_16
*104 PHY_EDGE_ROW_3_Right_3
*105 PHY_EDGE_ROW_4_Left_17
*106 PHY_EDGE_ROW_4_Right_4
*107 PHY_EDGE_ROW_5_Left_18
*108 PHY_EDGE_ROW_5_Right_5
*109 PHY_EDGE_ROW_6_Left_19
*110 PHY_EDGE_ROW_6_Right_6
*111 PHY_EDGE_ROW_7_Left_20
*112 PHY_EDGE_ROW_7_Right_7
*113 PHY_EDGE_ROW_8_Left_21
*114 PHY_EDGE_ROW_8_Right_8
*115 PHY_EDGE_ROW_9_Left_22
*116 PHY_EDGE_ROW_9_Right_9
*117 TAP_TAPCELL_ROW_0_26
*118 TAP_TAPCELL_ROW_10_31
*119 TAP_TAPCELL_ROW_12_32
*120 TAP_TAPCELL_ROW_2_27
*121 TAP_TAPCELL_ROW_4_28
*122 TAP_TAPCELL_ROW_6_29
*123 TAP_TAPCELL_ROW_8_30
*124 _3_
*125 _4_
*126 _5_
*127 _6_
*128 _7_
*129 _8_
*130 _9_
*131 input1
*132 input2
*133 input3
*134 input4
*135 output5
*136 output6
*137 output7
*138 output8

*PORTS
a[0] I
a[1] I
a[2] I
a[3] I
out[0] O
out[1] O
out[2] O
out[3] O

*D_NET *3 0.000846433
*CONN
*P a[0] I
*I *131:A I *D sky130_fd_sc_hd__buf_1
*CAP
1 a[0] 0.000423216
2 *131:A 0
3 *3:17 0.000423216
*RES
1 a[0] *3:17 29.2712 
2 *3:17 *131:A 23 
*END

*D_NET *4 0.000717031
*CONN
*P a[1] I
*I *132:A I *D sky130_fd_sc_hd__buf_1
*CAP
1 a[1] 0.000358516
2 *132:A 0.000358516
*RES
1 a[1] *132:A 49.5439 
*END

*D_NET *5 0.000730756
*CONN
*P a[2] I
*I *133:A I *D sky130_fd_sc_hd__clkbuf_1
*CAP
1 a[2] 0.000365378
2 *133:A 0
3 *5:17 0.000365378
*RES
1 a[2] *5:17 28.2148 
2 *5:17 *133:A 23 
*END

*D_NET *6 0.00097756
*CONN
*P a[3] I
*I *134:A I *D sky130_fd_sc_hd__buf_1
*CAP
1 a[3] 0.00048878
2 *134:A 0
3 *6:17 0.00048878
*RES
1 a[3] *6:17 31.032 
2 *6:17 *134:A 23 
*END

*D_NET *7 0.000686151
*CONN
*P out[0] O
*I *135:X O *D sky130_fd_sc_hd__buf_2
*CAP
1 out[0] 0.000343076
2 *135:X 0.000343076
*RES
1 *135:X out[0] 49.1918 
*END

*D_NET *8 0.000624417
*CONN
*P out[1] O
*I *136:X O *D sky130_fd_sc_hd__buf_2
*CAP
1 out[1] 0.000312208
2 *136:X 0.000312208
*RES
1 *136:X out[1] 48.4875 
*END

*D_NET *9 0.000623137
*CONN
*P out[2] O
*I *137:X O *D sky130_fd_sc_hd__buf_2
*CAP
1 out[2] 0.000289939
2 *137:X 0.000289939
3 out[2] *21:12 4.32584e-05
*RES
1 *137:X out[2] 48.4875 
*END

*D_NET *10 0.000847343
*CONN
*P out[3] O
*I *138:X O *D sky130_fd_sc_hd__buf_2
*CAP
1 out[3] 0.000197482
2 *138:X 0.000226189
3 *10:8 0.000423672
*RES
1 *138:X *10:8 42.5468 
2 *10:8 out[3] 8.75787 
*END

*D_NET *11 0.00148131
*CONN
*I *127:B I *D sky130_fd_sc_hd__and2_1
*I *126:Y O *D sky130_fd_sc_hd__o21ai_1
*CAP
1 *127:B 0.000436899
2 *126:Y 6.90544e-05
3 *11:8 0.000505953
4 *127:B *128:A 0.000100805
5 *127:B *13:12 0.000145294
6 *127:B *20:6 0.000109216
7 *11:8 *16:10 0.000114092
8 *11:8 *18:14 0
*RES
1 *126:Y *11:8 39.5536 
2 *11:8 *127:B 46.7414 
*END

*D_NET *12 0.00022664
*CONN
*I *128:A I *D sky130_fd_sc_hd__clkbuf_1
*I *127:X O *D sky130_fd_sc_hd__and2_1
*CAP
1 *128:A 1.25146e-05
2 *127:X 1.25146e-05
3 *128:A *13:12 0.000100805
4 *127:B *128:A 0.000100805
*RES
1 *127:X *128:A 47.0979 
*END

*D_NET *13 0.002816
*CONN
*I *129:B I *D sky130_fd_sc_hd__xor2_1
*I *127:A I *D sky130_fd_sc_hd__and2_1
*I *125:X O *D sky130_fd_sc_hd__or3_1
*CAP
1 *129:B 0.000505578
2 *127:A 0
3 *125:X 0
4 *13:12 0.000434027
5 *13:4 0.000939605
6 *129:B *15:14 5.67058e-05
7 *129:B *15:27 0.000384359
8 *13:12 *125:B 5.20202e-05
9 *13:12 *125:C 0
10 *13:12 *130:A 0.000140671
11 *13:12 *20:6 5.69373e-05
12 *127:B *13:12 0.000145294
13 *128:A *13:12 0.000100805
*RES
1 *125:X *13:4 23 
2 *13:4 *13:12 40.3364 
3 *13:12 *127:A 23 
4 *13:4 *129:B 32.2179 
*END

*D_NET *14 0.00587298
*CONN
*I *124:B I *D sky130_fd_sc_hd__xor2_1
*I *126:A2 I *D sky130_fd_sc_hd__o21ai_1
*I *125:B I *D sky130_fd_sc_hd__or3_1
*I *130:A I *D sky130_fd_sc_hd__clkbuf_1
*I *131:X O *D sky130_fd_sc_hd__buf_1
*CAP
1 *124:B 0
2 *126:A2 0
3 *125:B 7.05314e-05
4 *130:A 0.000431896
5 *131:X 0.000971825
6 *14:18 0.000776894
7 *14:14 0.000709509
8 *14:10 0.000626845
9 *14:6 0.00116363
10 *125:B *125:C 0
11 *130:A *125:C 0
12 *130:A *16:8 0.000128223
13 *130:A *16:10 0
14 *14:10 *18:14 0.000181412
15 *14:14 *124:A 0
16 *14:14 *125:C 5.68527e-05
17 *14:14 *15:14 0
18 *14:14 *15:27 0.000164291
19 *14:14 *18:14 0.000343373
20 *14:18 *126:B1 5.50106e-05
21 *13:12 *125:B 5.20202e-05
22 *13:12 *130:A 0.000140671
*RES
1 *131:X *14:6 35.5321 
2 *14:6 *14:10 19.7229 
3 *14:10 *14:14 26.0614 
4 *14:14 *14:18 19.4329 
5 *14:18 *130:A 47.0107 
6 *14:18 *125:B 39.5536 
7 *14:14 *126:A2 23 
8 *14:10 *124:B 38 
*END

*D_NET *15 0.00401552
*CONN
*I *124:A I *D sky130_fd_sc_hd__xor2_1
*I *126:A1 I *D sky130_fd_sc_hd__o21ai_1
*I *125:A I *D sky130_fd_sc_hd__or3_1
*I *132:X O *D sky130_fd_sc_hd__buf_1
*CAP
1 *124:A 0.000466621
2 *126:A1 0
3 *125:A 0
4 *132:X 0.000494085
5 *15:27 0.000224476
6 *15:14 0.000540612
7 *15:8 0.00127684
8 *15:14 *125:C 0
9 *15:27 *125:C 0.000185428
10 *15:27 *16:10 0
11 *15:27 *18:14 0.000222104
12 *129:B *15:14 5.67058e-05
13 *129:B *15:27 0.000384359
14 *14:14 *124:A 0
15 *14:14 *15:14 0
16 *14:14 *15:27 0.000164291
*RES
1 *132:X *15:8 46.2443 
2 *15:8 *15:14 21.0486 
3 *15:14 *125:A 23 
4 *15:14 *15:27 37.395 
5 *15:27 *126:A1 23 
6 *15:8 *124:A 46.2236 
*END

*D_NET *16 0.0030795
*CONN
*I *125:C I *D sky130_fd_sc_hd__or3_1
*I *126:B1 I *D sky130_fd_sc_hd__o21ai_1
*I *133:X O *D sky130_fd_sc_hd__clkbuf_1
*CAP
1 *125:C 0.000242414
2 *126:B1 3.25631e-05
3 *133:X 0.000501738
4 *16:10 0.000567796
5 *16:8 0.000794557
6 *16:8 *18:8 0.000400821
7 *16:10 *18:14 0
8 *125:B *125:C 0
9 *130:A *125:C 0
10 *130:A *16:8 0.000128223
11 *130:A *16:10 0
12 *11:8 *16:10 0.000114092
13 *13:12 *125:C 0
14 *14:14 *125:C 5.68527e-05
15 *14:18 *126:B1 5.50106e-05
16 *15:14 *125:C 0
17 *15:27 *125:C 0.000185428
18 *15:27 *16:10 0
*RES
1 *133:X *16:8 49.1029 
2 *16:8 *16:10 5.42714 
3 *16:10 *126:B1 38.6214 
4 *16:10 *125:C 43.0129 
*END

*D_NET *17 0.00457513
*CONN
*I *129:A I *D sky130_fd_sc_hd__xor2_1
*I *134:X O *D sky130_fd_sc_hd__buf_1
*CAP
1 *129:A 0
2 *134:X 0.00126311
3 *17:12 0.00102446
4 *17:6 0.00228757
5 *17:12 *18:14 0
6 *17:12 *21:12 0
*RES
1 *134:X *17:6 39.3436 
2 *17:6 *17:12 49.1607 
3 *17:12 *129:A 23 
*END

*D_NET *18 0.00452048
*CONN
*I *135:A I *D sky130_fd_sc_hd__buf_2
*I *130:X O *D sky130_fd_sc_hd__clkbuf_1
*CAP
1 *135:A 0
2 *130:X 0.000452923
3 *18:14 0.00123346
4 *18:8 0.00168638
5 *11:8 *18:14 0
6 *14:10 *18:14 0.000181412
7 *14:14 *18:14 0.000343373
8 *15:27 *18:14 0.000222104
9 *16:8 *18:8 0.000400821
10 *16:10 *18:14 0
11 *17:12 *18:14 0
*RES
1 *130:X *18:8 44.815 
2 *18:8 *18:14 42.0114 
3 *18:14 *135:A 23 
*END

*D_NET *19 0.000758115
*CONN
*I *136:A I *D sky130_fd_sc_hd__buf_2
*I *124:X O *D sky130_fd_sc_hd__xor2_1
*CAP
1 *136:A 0
2 *124:X 0.000379057
3 *19:10 0.000379057
*RES
1 *124:X *19:10 44.9186 
2 *19:10 *136:A 38 
*END

*D_NET *20 0.00240114
*CONN
*I *137:A I *D sky130_fd_sc_hd__buf_2
*I *128:X O *D sky130_fd_sc_hd__clkbuf_1
*CAP
1 *137:A 0
2 *128:X 0.000944308
3 *20:12 8.83526e-05
4 *20:6 0.00103266
5 *20:12 *21:12 0.000169665
6 *127:B *20:6 0.000109216
7 *13:12 *20:6 5.69373e-05
*RES
1 *128:X *20:6 35.5321 
2 *20:6 *20:12 32.2579 
3 *20:12 *137:A 23 
*END

*D_NET *21 0.00217843
*CONN
*I *138:A I *D sky130_fd_sc_hd__buf_2
*I *129:X O *D sky130_fd_sc_hd__xor2_1
*CAP
1 *138:A 0
2 *129:X 0
3 *21:12 0.000982752
4 *21:6 0.000982752
5 out[2] *21:12 4.32584e-05
6 *17:12 *21:12 0
7 *20:12 *21:12 0.000169665
*RES
1 *129:X *21:6 38 
2 *21:6 *21:12 34.7821 
3 *21:12 *138:A 23 
*END
