*SPEF "ieee 1481-1999"
*DESIGN "twos_complement"
*DATE "12:48:52 Sunday April 27, 2025"
*VENDOR "The OpenROAD Project"
*PROGRAM "OpenROAD"
*VERSION "b16bda7e82721d10566ff7e2b68f1ff0be9f9e38"
*DESIGN_FLOW "NAME_SCOPE LOCAL" "PIN_CAP NONE"
*DIVIDER /
*DELIMITER :
*BUS_DELIMITER []
*T_UNIT 1 NS
*C_UNIT 1 PF
*R_UNIT 1 OHM
*L_UNIT 1 HENRY

*NAME_MAP
*3 a[0]
*4 a[1]
*5 a[2]
*6 a[3]
*7 out[0]
*8 out[1]
*9 out[2]
*10 out[3]
*11 _0_
*12 _1_
*13 _2_
*14 net1
*15 net2
*16 net3
*17 net4
*18 net5
*19 net6
*20 net7
*21 net8
*22 FILLER_0_0_18
*23 FILLER_0_0_26
*24 FILLER_0_0_29
*25 FILLER_0_0_41
*26 FILLER_0_0_6
*27 FILLER_0_10_15
*28 FILLER_0_10_27
*29 FILLER_0_10_29
*30 FILLER_0_10_3
*31 FILLER_0_10_37
*32 FILLER_0_10_45
*33 FILLER_0_11_15
*34 FILLER_0_11_27
*35 FILLER_0_11_3
*36 FILLER_0_11_39
*37 FILLER_0_11_47
*38 FILLER_0_12_18
*39 FILLER_0_12_26
*40 FILLER_0_12_29
*41 FILLER_0_12_41
*42 FILLER_0_12_6
*43 FILLER_0_1_15
*44 FILLER_0_1_27
*45 FILLER_0_1_3
*46 FILLER_0_1_39
*47 FILLER_0_1_47
*48 FILLER_0_2_15
*49 FILLER_0_2_27
*50 FILLER_0_2_29
*51 FILLER_0_2_3
*52 FILLER_0_2_41
*53 FILLER_0_2_47
*54 FILLER_0_3_15
*55 FILLER_0_3_27
*56 FILLER_0_3_3
*57 FILLER_0_3_39
*58 FILLER_0_3_47
*59 FILLER_0_4_14
*60 FILLER_0_4_20
*61 FILLER_0_4_29
*62 FILLER_0_4_41
*63 FILLER_0_4_6
*64 FILLER_0_5_15
*65 FILLER_0_5_19
*66 FILLER_0_5_3
*67 FILLER_0_5_31
*68 FILLER_0_5_43
*69 FILLER_0_5_47
*70 FILLER_0_5_9
*71 FILLER_0_6_15
*72 FILLER_0_6_27
*73 FILLER_0_6_3
*74 FILLER_0_6_33
*75 FILLER_0_6_45
*76 FILLER_0_7_15
*77 FILLER_0_7_19
*78 FILLER_0_7_25
*79 FILLER_0_7_3
*80 FILLER_0_7_44
*81 FILLER_0_8_15
*82 FILLER_0_8_27
*83 FILLER_0_8_29
*84 FILLER_0_8_3
*85 FILLER_0_8_41
*86 FILLER_0_8_47
*87 FILLER_0_9_18
*88 FILLER_0_9_30
*89 FILLER_0_9_42
*90 FILLER_0_9_6
*91 PHY_EDGE_ROW_0_Left_13
*92 PHY_EDGE_ROW_0_Right_0
*93 PHY_EDGE_ROW_10_Left_23
*94 PHY_EDGE_ROW_10_Right_10
*95 PHY_EDGE_ROW_11_Left_24
*96 PHY_EDGE_ROW_11_Right_11
*97 PHY_EDGE_ROW_12_Left_25
*98 PHY_EDGE_ROW_12_Right_12
*99 PHY_EDGE_ROW_1_Left_14
*100 PHY_EDGE_ROW_1_Right_1
*101 PHY_EDGE_ROW_2_Left_15
*102 PHY_EDGE_ROW_2_Right_2
*103 PHY_EDGE_ROW_3_Left_16
*104 PHY_EDGE_ROW_3_Right_3
*105 PHY_EDGE_ROW_4_Left_17
*106 PHY_EDGE_ROW_4_Right_4
*107 PHY_EDGE_ROW_5_Left_18
*108 PHY_EDGE_ROW_5_Right_5
*109 PHY_EDGE_ROW_6_Left_19
*110 PHY_EDGE_ROW_6_Right_6
*111 PHY_EDGE_ROW_7_Left_20
*112 PHY_EDGE_ROW_7_Right_7
*113 PHY_EDGE_ROW_8_Left_21
*114 PHY_EDGE_ROW_8_Right_8
*115 PHY_EDGE_ROW_9_Left_22
*116 PHY_EDGE_ROW_9_Right_9
*117 TAP_TAPCELL_ROW_0_26
*118 TAP_TAPCELL_ROW_10_31
*119 TAP_TAPCELL_ROW_12_32
*120 TAP_TAPCELL_ROW_2_27
*121 TAP_TAPCELL_ROW_4_28
*122 TAP_TAPCELL_ROW_6_29
*123 TAP_TAPCELL_ROW_8_30
*124 _3_
*125 _4_
*126 _5_
*127 _6_
*128 _7_
*129 _8_
*130 _9_
*131 input1
*132 input2
*133 input3
*134 input4
*135 output5
*136 output6
*137 output7
*138 output8

*PORTS
a[0] I
a[1] I
a[2] I
a[3] I
out[0] O
out[1] O
out[2] O
out[3] O

*D_NET *3 0.000737031
*CONN
*P a[0] I
*I *131:A I *D sky130_fd_sc_hd__buf_1
*CAP
1 a[0] 0.000368515
2 *131:A 0.000368515
*RES
1 a[0] *131:A 8.6193 
*END

*D_NET *4 0.000621083
*CONN
*P a[1] I
*I *132:A I *D sky130_fd_sc_hd__buf_1
*CAP
1 a[1] 0.000310542
2 *132:A 0.000310542
*RES
1 a[1] *132:A 6.63177 
*END

*D_NET *5 0.000638333
*CONN
*P a[2] I
*I *133:A I *D sky130_fd_sc_hd__clkbuf_1
*CAP
1 a[2] 0.000319167
2 *133:A 0.000319167
*RES
1 a[2] *133:A 7.8543 
*END

*D_NET *6 0.000863065
*CONN
*P a[3] I
*I *134:A I *D sky130_fd_sc_hd__buf_1
*CAP
1 a[3] 0.000431532
2 *134:A 0.000431532
*RES
1 a[3] *134:A 9.8943 
*END

*D_NET *7 0.000592972
*CONN
*P out[0] O
*I *135:X O *D sky130_fd_sc_hd__buf_2
*CAP
1 out[0] 0.000296486
2 *135:X 0.000296486
*RES
1 *135:X out[0] 6.37677 
*END

*D_NET *8 0.00053677
*CONN
*P out[1] O
*I *136:X O *D sky130_fd_sc_hd__buf_2
*CAP
1 out[1] 0.000268385
2 *136:X 0.000268385
*RES
1 *136:X out[1] 5.86677 
*END

*D_NET *9 0.000538987
*CONN
*P out[2] O
*I *137:X O *D sky130_fd_sc_hd__buf_2
*CAP
1 out[2] 0.000247476
2 *137:X 0.000247476
3 out[2] *138:A 4.40358e-05
*RES
1 *137:X out[2] 5.86677 
*END

*D_NET *10 0.000746659
*CONN
*P out[3] O
*I *138:X O *D sky130_fd_sc_hd__buf_2
*CAP
1 out[3] 0.000373329
2 *138:X 0.000373329
*RES
1 *138:X out[3] 7.90677 
*END

*D_NET *11 0.00125165
*CONN
*I *127:B I *D sky130_fd_sc_hd__and2_1
*I *126:Y O *D sky130_fd_sc_hd__o21ai_1
*CAP
1 *127:B 0.000413572
2 *126:Y 0.000413572
3 *127:B *127:A 0.000130517
4 *127:B *128:A 8.77498e-05
5 *127:B *135:A 0
6 *127:B *137:A 0.000110793
7 *127:B *16:10 9.54469e-05
*RES
1 *126:Y *127:B 14.655 
*END

*D_NET *12 0.000197156
*CONN
*I *128:A I *D sky130_fd_sc_hd__clkbuf_1
*I *127:X O *D sky130_fd_sc_hd__and2_1
*CAP
1 *128:A 1.08281e-05
2 *127:X 1.08281e-05
3 *128:A *127:A 8.77498e-05
4 *127:B *128:A 8.77498e-05
*RES
1 *127:X *128:A 3.995 
*END

*D_NET *13 0.00237018
*CONN
*I *129:B I *D sky130_fd_sc_hd__xor2_1
*I *127:A I *D sky130_fd_sc_hd__and2_1
*I *125:X O *D sky130_fd_sc_hd__or3_1
*CAP
1 *129:B 0.00042168
2 *127:A 0.000345388
3 *125:X 0
4 *13:4 0.000767068
5 *127:A *125:B 4.84393e-05
6 *127:A *125:C 0
7 *127:A *130:A 0.000130072
8 *127:A *137:A 5.13714e-05
9 *129:B *126:A1 0.000337929
10 *129:B *15:14 4.99619e-05
11 *127:B *127:A 0.000130517
12 *128:A *127:A 8.77498e-05
*RES
1 *125:X *13:4 1.6 
2 *13:4 *127:A 13.085 
3 *13:4 *129:B 8.275 
*END

*D_NET *14 0.00491001
*CONN
*I *124:B I *D sky130_fd_sc_hd__xor2_1
*I *126:A2 I *D sky130_fd_sc_hd__o21ai_1
*I *125:B I *D sky130_fd_sc_hd__or3_1
*I *130:A I *D sky130_fd_sc_hd__clkbuf_1
*I *131:X O *D sky130_fd_sc_hd__buf_1
*CAP
1 *124:B 0
2 *126:A2 0
3 *125:B 5.23217e-05
4 *130:A 0.000340529
5 *131:X 0.000987909
6 *14:18 0.000625667
7 *14:14 0.000561771
8 *14:10 0.00131686
9 *125:B *125:C 0
10 *130:A *125:C 0
11 *130:A *16:10 0.000116908
12 *14:10 *135:A 0.000167709
13 *14:14 *124:A 0
14 *14:14 *125:C 5.93844e-05
15 *14:14 *126:A1 0.000137578
16 *14:14 *135:A 0.000316565
17 *14:14 *15:14 0
18 *14:18 *126:B1 4.82919e-05
19 *127:A *125:B 4.84393e-05
20 *127:A *130:A 0.000130072
*RES
1 *131:X *14:10 16.095 
2 *14:10 *14:14 10.01 
3 *14:14 *14:18 5.21 
4 *14:18 *130:A 10.125 
5 *14:18 *125:B 4.725 
6 *14:14 *126:A2 1.6 
7 *14:10 *124:B 3.6 
*END

*D_NET *15 0.00338349
*CONN
*I *124:A I *D sky130_fd_sc_hd__xor2_1
*I *126:A1 I *D sky130_fd_sc_hd__o21ai_1
*I *125:A I *D sky130_fd_sc_hd__or3_1
*I *132:X O *D sky130_fd_sc_hd__buf_1
*CAP
1 *124:A 0.000393477
2 *126:A1 0.000164678
3 *125:A 0
4 *132:X 0.000436139
5 *15:14 0.0004251
6 *15:8 0.00109004
7 *126:A1 *125:C 0.000163199
8 *126:A1 *135:A 0.000185398
9 *126:A1 *16:10 0
10 *15:14 *125:C 0
11 *129:B *126:A1 0.000337929
12 *129:B *15:14 4.99619e-05
13 *14:14 *124:A 0
14 *14:14 *126:A1 0.000137578
15 *14:14 *15:14 0
*RES
1 *132:X *15:8 9.57 
2 *15:8 *15:14 6.38 
3 *15:14 *125:A 1.6 
4 *15:14 *126:A1 10.955 
5 *15:8 *124:A 9.555 
*END

*D_NET *16 0.00258292
*CONN
*I *125:C I *D sky130_fd_sc_hd__or3_1
*I *126:B1 I *D sky130_fd_sc_hd__o21ai_1
*I *133:X O *D sky130_fd_sc_hd__clkbuf_1
*CAP
1 *125:C 0.000183977
2 *126:B1 2.32258e-05
3 *133:X 0.000666821
4 *16:10 0.000874023
5 *16:10 *135:A 0.000351641
6 *125:B *125:C 0
7 *126:A1 *125:C 0.000163199
8 *126:A1 *16:10 0
9 *127:A *125:C 0
10 *127:B *16:10 9.54469e-05
11 *130:A *125:C 0
12 *130:A *16:10 0.000116908
13 *14:14 *125:C 5.93844e-05
14 *14:18 *126:B1 4.82919e-05
15 *15:14 *125:C 0
*RES
1 *133:X *16:10 15.57 
2 *16:10 *126:B1 4.05 
3 *16:10 *125:C 7.23 
*END

*D_NET *17 0.00389007
*CONN
*I *129:A I *D sky130_fd_sc_hd__xor2_1
*I *134:X O *D sky130_fd_sc_hd__buf_1
*CAP
1 *129:A 0.00194503
2 *134:X 0.00194503
3 *129:A *135:A 0
4 *129:A *138:A 0
*RES
1 *134:X *129:A 32.91 
*END

*D_NET *18 0.00380757
*CONN
*I *135:A I *D sky130_fd_sc_hd__buf_2
*I *130:X O *D sky130_fd_sc_hd__clkbuf_1
*CAP
1 *135:A 0.00139313
2 *130:X 0.00139313
3 *126:A1 *135:A 0.000185398
4 *127:B *135:A 0
5 *129:A *135:A 0
6 *14:10 *135:A 0.000167709
7 *14:14 *135:A 0.000316565
8 *16:10 *135:A 0.000351641
*RES
1 *130:X *135:A 31.695 
*END

*D_NET *19 0.000648959
*CONN
*I *136:A I *D sky130_fd_sc_hd__buf_2
*I *124:X O *D sky130_fd_sc_hd__xor2_1
*CAP
1 *136:A 0.00032448
2 *124:X 0.00032448
*RES
1 *124:X *136:A 12.21 
*END

*D_NET *20 0.00202512
*CONN
*I *137:A I *D sky130_fd_sc_hd__buf_2
*I *128:X O *D sky130_fd_sc_hd__clkbuf_1
*CAP
1 *137:A 0.000860681
2 *128:X 0.000860681
3 *137:A *138:A 0.000141592
4 *127:A *137:A 5.13714e-05
5 *127:B *137:A 0.000110793
*RES
1 *128:X *137:A 17.91 
*END

*D_NET *21 0.00181795
*CONN
*I *138:A I *D sky130_fd_sc_hd__buf_2
*I *129:X O *D sky130_fd_sc_hd__xor2_1
*CAP
1 *138:A 0.000816162
2 *129:X 0.000816162
3 out[2] *138:A 4.40358e-05
4 *129:A *138:A 0
5 *137:A *138:A 0.000141592
*RES
1 *129:X *138:A 21.525 
*END
